# generated using pymatgen
data_CuH6C16N5O8
_symmetry_space_group_name_H-M   'P 1'
_cell_length_a   10.44573000
_cell_length_b   11.13269000
_cell_length_c   16.68500000
_cell_angle_alpha   90.11897000
_cell_angle_beta   92.41047000
_cell_angle_gamma   89.22560000
_symmetry_Int_Tables_number   1
_chemical_formula_structural   CuH6C16N5O8
_chemical_formula_sum   'Cu2 H12 C32 N10 O16'
_cell_volume   1938.38708850
_cell_formula_units_Z   2
loop_
 _symmetry_equiv_pos_site_id
 _symmetry_equiv_pos_as_xyz
  1  'x, y, z'
loop_
 _atom_site_type_symbol
 _atom_site_label
 _atom_site_symmetry_multiplicity
 _atom_site_fract_x
 _atom_site_fract_y
 _atom_site_fract_z
 _atom_site_occupancy
  _atom_site_charge
  Cu  Cu0  1  0.35071927  0.58476550  0.14620710  1  0.945553
  Cu  Cu1  1  0.43396580  0.36554116  0.18278265  1  0.772588
  H  H2  1  0.49790800  0.92490536  0.04117014  1  0.046392
  H  H3  1  0.27604026  0.78672980  0.40628827  1  0.058707
  H  H4  1  0.33785250  0.98700290  0.44873294  1  0.073552
  H  H5  1  0.39515823  0.12292457  0.05551778  1  0.041321
  H  H6  1  0.28369660  0.60445720  0.35730320  1  0.162932
  H  H7  1  0.42881500  0.29127550  0.44641212  1  0.168970
  H  H8  1  0.33279055  0.58592767  0.41837680  1  0.007736
  H  H9  1  0.49576902  0.39217186  0.93289816  1  0.041681
  H  H10  1  0.42255200  0.26941454  0.58541435  1  0.077745
  H  H11  1  0.47878683  0.78811780  0.81317690  1  0.079031
  H  H12  1  0.49439538  0.78073025  0.66845630  1  0.073836
  H  H13  1  0.50890820  0.29006752  0.72183394  1  0.068193
  C  C14  1  0.51117590  0.74790390  0.14894293  1  0.446221
  C  C15  1  0.33157950  0.80880040  0.28294218  1  -0.085659
  C  C16  1  0.31390738  0.84626967  0.36227974  1  0.003572
  C  C17  1  0.34205693  0.96343535  0.38588014  1  0.020627
  C  C18  1  0.37052745  0.05012000  0.32865953  1  -0.080096
  C  C19  1  0.36917803  0.01597035  0.24642085  1  0.054688
  C  C20  1  0.38118196  0.89287496  0.22849408  1  0.078556
  C  C21  1  0.44227588  0.86186990  0.15699269  1  -0.145985
  C  C22  1  0.45322560  0.94793300  0.09672877  1  0.037111
  C  C23  1  0.39932270  0.06184030  0.10603126  1  -0.024386
  C  C24  1  0.35283240  0.09648609  0.18042226  1  -0.073607
  C  C25  1  0.27108312  0.20557737  0.18520512  1  0.184795
  C  C26  1  0.26409078  0.69901420  0.25288874  1  0.247590
  C  C27  1  0.41936615  0.16818881  0.35749483  1  0.391229
  C  C28  1  0.81461760  0.46431392  0.16480048  1  0.098058
  C  C29  1  0.95599073  0.47596390  0.16440487  1  0.062156
  C  C30  1  0.39700890  0.51090556  0.40903616  1  0.070613
  C  C31  1  0.42031783  0.45882640  0.93132950  1  0.038611
  C  C32  1  0.51049320  0.33893120  0.42633173  1  0.049874
  C  C33  1  0.31327890  0.63143110  0.91507614  1  0.134875
  C  C34  1  0.44735646  0.43118626  0.46659005  1  -0.032443
  C  C35  1  0.41748750  0.56477165  0.88842240  1  -0.035707
  C  C36  1  0.45634830  0.45417430  0.55281097  1  0.031660
  C  C37  1  0.51472880  0.59663725  0.83016010  1  0.036144
  C  C38  1  0.50493220  0.36822978  0.68322710  1  -0.011536
  C  C39  1  0.50874585  0.69859870  0.70236390  1  -0.013153
  C  C40  1  0.45565438  0.35651758  0.60546046  1  -0.032841
  C  C41  1  0.50260290  0.70354260  0.78568350  1  -0.033566
  C  C42  1  0.48124730  0.57098454  0.58295340  1  0.050378
  C  C43  1  0.57209480  0.49839370  0.79286987  1  0.043734
  C  C44  1  0.51012040  0.58511376  0.66496205  1  0.012481
  C  C45  1  0.53621780  0.48197990  0.71255750  1  0.012419
  N  N46  1  0.70140720  0.45557356  0.16495185  1  -0.151817
  N  N47  1  0.06902659  0.48545188  0.16406348  1  -0.097665
  N  N48  1  0.43677637  0.47545040  0.33780370  1  -0.133268
  N  N49  1  0.33715147  0.46690667  0.98900570  1  -0.108386
  N  N50  1  0.50939107  0.36703324  0.34857710  1  -0.070446
  N  N51  1  0.26453674  0.57532376  0.97823230  1  -0.087884
  N  N52  1  0.54079634  0.22105433  0.45640580  1  0.003966
  N  N53  1  0.29710674  0.75742370  0.90319440  1  -0.024763
  N  N54  1  0.48149960  0.67347646  0.53107410  1  -0.017064
  N  N55  1  0.66313535  0.42047060  0.83533300  1  -0.015638
  O  O56  1  0.63593170  0.74418640  0.15648575  1  -0.241672
  O  O57  1  0.44500670  0.65427050  0.13148989  1  -0.688266
  O  O58  1  0.22400224  0.23173666  0.25371403  1  -0.214560
  O  O59  1  0.23869257  0.26698590  0.12049033  1  -0.276135
  O  O60  1  0.21456617  0.69952756  0.18525496  1  -0.318669
  O  O61  1  0.24624537  0.59809550  0.30080980  1  -0.337782
  O  O62  1  0.48746890  0.22778511  0.31536320  1  -0.295729
  O  O63  1  0.38980234  0.21018124  0.43367818  1  -0.279062
  O  O64  1  0.61701760  0.20709400  0.51951647  1  -0.086975
  O  O65  1  0.51480650  0.12821852  0.41149876  1  -0.140851
  O  O66  1  0.37299645  0.83131355  0.94177747  1  -0.098186
  O  O67  1  0.22272243  0.79682820  0.84428865  1  -0.083896
  O  O68  1  0.58051630  0.69388580  0.48861150  1  -0.090961
  O  O69  1  0.38591725  0.74972190  0.52944010  1  -0.111418
  O  O70  1  0.71486860  0.45528960  0.90370710  1  -0.098007
  O  O71  1  0.71448237  0.32896876  0.79944426  1  -0.089513
