# generated using pymatgen
data_ZnH5C23N3Cl3O11
_symmetry_space_group_name_H-M   'P 1'
_cell_length_a   9.18513000
_cell_length_b   10.07485000
_cell_length_c   22.01202000
_cell_angle_alpha   91.14606000
_cell_angle_beta   91.22553000
_cell_angle_gamma   89.37640000
_symmetry_Int_Tables_number   1
_chemical_formula_structural   ZnH5C23N3Cl3O11
_chemical_formula_sum   'Zn2 H10 C46 N6 Cl6 O22'
_cell_volume   2035.98133354
_cell_formula_units_Z   2
loop_
 _symmetry_equiv_pos_site_id
 _symmetry_equiv_pos_as_xyz
  1  'x, y, z'
loop_
 _atom_site_type_symbol
 _atom_site_label
 _atom_site_symmetry_multiplicity
 _atom_site_fract_x
 _atom_site_fract_y
 _atom_site_fract_z
 _atom_site_occupancy
  Zn  Zn0  1  0.36388147  0.42908764  0.79685575  1
  Zn  Zn1  1  0.33054617  0.71135250  0.74707450  1
  H  H2  1  0.53680044  0.25050887  0.82551770  1
  H  H3  1  0.14706741  0.88960624  0.71777120  1
  H  H4  1  0.65926915  0.08341953  0.86585930  1
  H  H5  1  0.02460389  0.05668149  0.67743325  1
  H  H6  1  0.67278280  0.54670170  0.66961620  1
  H  H7  1  0.03908559  0.66341530  0.87550380  1
  H  H8  1  0.75811434  0.53380626  0.51315860  1
  H  H9  1  0.97713920  0.71701870  0.03443726  1
  H  H10  1  0.43805410  0.88675815  0.32749736  1
  H  H11  1  0.25800112  0.23236293  0.21616964  1
  C  C12  1  0.63465180  0.59974690  0.77555764  1
  C  C13  1  0.05916393  0.54393226  0.76878947  1
  C  C14  1  0.78359740  0.58000237  0.77315587  1
  C  C15  1  0.91023016  0.56364787  0.77116660  1
  C  C16  1  0.51375437  0.98444880  0.79588854  1
  C  C17  1  0.17013003  0.15566313  0.74740326  1
  C  C18  1  0.48222970  0.85278690  0.77572010  1
  C  C19  1  0.20165175  0.28732952  0.76755910  1
  C  C20  1  0.24925296  0.91944660  0.73865240  1
  C  C21  1  0.43462127  0.22066598  0.80464154  1
  C  C22  1  0.27504858  0.05374455  0.75691310  1
  C  C23  1  0.40882573  0.08636794  0.78638080  1
  C  C24  1  0.65486050  0.01375758  0.82770026  1
  C  C25  1  0.02902387  0.12635430  0.71559143  1
  C  C26  1  0.17284791  0.58992120  0.95495010  1
  C  C27  1  0.51643530  0.53808350  0.52541363  1
  C  C28  1  0.17644912  0.59158444  0.01916854  1
  C  C29  1  0.38523734  0.56921890  0.49377070  1
  C  C30  1  0.30560675  0.55122346  0.04996833  1
  C  C31  1  0.39020014  0.58925730  0.68588114  1
  C  C32  1  0.30016828  0.55051166  0.85777074  1
  C  C33  1  0.26000988  0.60953530  0.52476484  1
  C  C34  1  0.29233932  0.44111416  0.14526112  1
  C  C35  1  0.40319420  0.67811257  0.39841107  1
  C  C36  1  0.34875956  0.67218935  0.14375302  1
  C  C37  1  0.34206843  0.44809866  0.40005028  1
  C  C38  1  0.36225110  0.67832680  0.20758483  1
  C  C39  1  0.33056003  0.44150186  0.33616713  1
  C  C40  1  0.34037098  0.55980164  0.23990436  1
  C  C41  1  0.35366836  0.55975750  0.30381435  1
  C  C42  1  0.30514310  0.44093240  0.20843202  1
  C  C43  1  0.42998353  0.51236250  0.01811849  1
  C  C44  1  0.38993883  0.67839480  0.33525518  1
  C  C45  1  0.39711344  0.79682875  0.24039070  1
  C  C46  1  0.29653290  0.32282495  0.30335304  1
  C  C47  1  0.41108150  0.79514860  0.30338272  1
  C  C48  1  0.28415108  0.32414850  0.24030305  1
  C  C49  1  0.64899390  0.49999365  0.62582386  1
  C  C50  1  0.03555898  0.61900324  0.91987514  1
  C  C51  1  0.65347797  0.51100840  0.49193272  1
  C  C52  1  0.26360620  0.62014455  0.58787010  1
  C  C53  1  0.04914048  0.64234380  0.05387419  1
  C  C54  1  0.42797977  0.51392955  0.95497260  1
  C  C55  1  0.39139774  0.58552150  0.62003340  1
  C  C56  1  0.30059293  0.55335003  0.92363560  1
  C  C57  1  0.51785150  0.54192704  0.58960750  1
  N  N58  1  0.33237200  0.31736696  0.79560390  1
  N  N59  1  0.35150590  0.82274747  0.74768280  1
  N  N60  1  0.09850048  0.39128800  0.75548770  1
  N  N61  1  0.58538470  0.74883026  0.78778434  1
  N  N62  1  0.31424126  0.55527690  0.11474721  1
  N  N63  1  0.37868187  0.56456760  0.42899296  1
  Cl  Cl64  1  0.42420995  0.95214500  0.20679569  1
  Cl  Cl65  1  0.26963463  0.16753240  0.33699920  1
  Cl  Cl66  1  0.09833061  0.64806950  0.48350810  1
  Cl  Cl67  1  0.59040900  0.46550107  0.05837328  1
  Cl  Cl68  1  0.10538292  0.67189180  0.62665410  1
  Cl  Cl69  1  0.58687530  0.46832258  0.91511670  1
  O  O70  1  0.55404920  0.49608076  0.77985394  1
  O  O71  1  0.58678710  0.72075725  0.77383095  1
  O  O72  1  0.10702431  0.42292356  0.77061670  1
  O  O73  1  0.13977408  0.64768213  0.76459146  1
  O  O74  1  0.07252625  0.42487583  0.69950380  1
  O  O75  1  0.00361383  0.42313060  0.79637570  1
  O  O76  1  0.61134505  0.71520850  0.84376620  1
  O  O77  1  0.68029510  0.71702135  0.74689597  1
  O  O78  1  0.76812935  0.96121156  0.81125090  1
  O  O79  1  0.91574990  0.17891450  0.73203707  1
  O  O80  1  0.43911994  0.79046065  0.42942142  1
  O  O81  1  0.37029412  0.78051394  0.11027721  1
  O  O82  1  0.31708768  0.34060657  0.43362337  1
  O  O83  1  0.72761047  0.40895343  0.60856146  1
  O  O84  1  0.91698855  0.58849910  0.93903375  1
  O  O85  1  0.65211240  0.46292883  0.44059800  1
  O  O86  1  0.02215335  0.60096675  0.10409374  1
  O  O87  1  0.40050720  0.47747870  0.71395560  1
  O  O88  1  0.29072258  0.66240010  0.82969797  1
  O  O89  1  0.38404000  0.70396240  0.71370150  1
  O  O90  1  0.30718970  0.43591640  0.82995200  1
  O  O91  1  0.25848603  0.32832130  0.11418795  1
