data_I
_chemical_name_common  '/home/sibivarshan_m7/MOFDiff/MOFDiff/results/nh3_target_22.0mmol/cif/sample_9'
_cell_length_a 10.27145
_cell_length_b 15.53879
_cell_length_c 16.60442
_cell_angle_alpha 89.24236
_cell_angle_beta  89.49398
_cell_angle_gamma 85.96486
_space_group_name_H-M_alt      'P 1'


loop_
_space_group_symop_operation_xyz
  'x, y, z' 

loop_
_atom_site_label
_atom_site_fract_x
_atom_site_fract_y
_atom_site_fract_z
_atom_site_type_symbol
H0    0.64673316 0.6460803 0.29020536     H
H1    0.5733438 0.42332092 0.08356184     H
H2    0.5935862 0.40682915 0.34789625     H
H3    0.62649065 0.6625721 0.025870902     H
H4    0.5542003 0.2474564 0.34291157     H
H5    0.6658767 0.82194483 0.030855618     H
H6    0.68601066 0.8054728 0.29519877     H
H7    0.5340662 0.2639286 0.078568354     H
C8    0.54736674 0.2960271 0.13901018     C
C9    0.6727103 0.77337414 0.23475699     C
C10   0.5691019 0.38386512 0.14174575     C
C11   0.65097487 0.6855361 0.23202139     C
C12   0.58555293 0.4232767 0.21599536     C
C13   0.63452417 0.6461246 0.15777184     C
C14   0.58026546 0.37478712 0.28744853     C
C15   0.63981146 0.6946142 0.086318605     C
C16   0.5585386 0.2869371 0.28471932     C
C17   0.66153836 0.78246427 0.0890478     C
N18   0.54208934 0.24753581 0.21052447     N
N19   0.6779876 0.82186544 0.16324267     N
N20   0.6077255 0.5130772 0.21878584     N
N21   0.6123514 0.556324 0.15498132     N
Zn22  0.75231504 0.02833335 0.1745116    Zn
Zn23  0.462195 0.04106652 0.19957186    Zn
H24   0.26487637 0.9440946 0.9239894     H
H25   0.18041551 0.09578924 0.46526983     H
H26   0.95253474 0.1352003 0.44532502     H
H27   0.03195486 0.9591524 0.91026485     H
C28   0.38096488 0.0019295443 0.2061519     C
C29   0.8340515 0.06252951 0.16715984     C
C30   0.9522337 0.10042038 0.3203099     C
C31   0.21898168 0.057225954 0.34291655     C
C32   0.26476818 0.9784563 0.049132675     C
C33   0.9935161 0.9982859 0.032537237     C
C34   0.00966337 0.10960883 0.39475945     C
C35   0.1399165 0.08755802 0.40604877     C
C36   0.20629644 0.9635846 0.9761261     C
C37   0.073385246 0.9725424 0.9682012     C
C38   0.1648993 0.0459981 0.26390833     C
C39   0.028160939 0.06513966 0.25313252     C
C40   0.049104497 0.016661825 0.10978189     C
C41   0.18716146 0.0044189976 0.118776515     C
C42   0.24200134 0.017613173 0.19608608     C
C43   0.9727431 0.047653627 0.17695309     C
Br44  0.3972749 0.034844458 0.37806085    Br
Br45  0.45151502 0.96124625 0.039781734    Br
Br46  0.8121807 0.0021137898 0.0015282095    Br
Br47  0.7714456 0.1447583 0.3228587    Br
O48   0.42750973 0.9266383 0.22708434     O
O49   0.76076716 0.00021429018 0.17784822     O
O50   0.7878592 0.13758096 0.14577112     O
O51   0.45460173 0.06400496 0.19500725     O
H52   0.7726767 0.9146915 0.43099877     H
H53   0.42437717 0.06984543 0.92265606     H
H54   0.8280564 0.9769827 0.9549196     H
H55   0.73681897 0.93361497 0.6828639     H
H56   0.35020688 0.98612124 0.5696568     H
H57   0.43064976 0.0148071395 0.78717864     H
H58   0.3781251 0.031780515 0.42932045     H
H59   0.8332716 0.9199465 0.8187955     H
H60   0.44130626  0.91271 0.6946095     H
H61   0.74014586 0.86237115 0.5665075     H
C62   0.6255662 0.027449276 0.9490198     C
C63   0.5999004 0.007112681 0.33719274     C
C64   0.45885605 0.99744374 0.45974842     C
C65   0.616909 0.051762793 0.033421516     C
C66   0.58027935 0.9822323 0.42134747     C
C67   0.67999935 0.93158615 0.46039274     C
C68   0.5169817 0.0037640976 0.8237431     C
C69    0.66122 0.90082926 0.5378195     C
C70   0.5445988 0.9236095 0.5790874     C
C71   0.4415471 0.96899366 0.538773     C
C72   0.5142148 0.03725665 0.9007197     C
C73   0.7408353 0.98553497 0.9186504     C
C74   0.7434922 0.9519365 0.84157705     C
C75   0.6311335 0.9593968 0.7942994     C
C76   0.5370657 0.9149353 0.66681606     C
C77   0.6413203 0.9306838 0.71092755     C
O78   0.4998539 0.028920269 0.29243138     O
O79   0.71508116 0.99128157 0.30698198     O
O80   0.50381124 0.075969815 0.06348026     O
O81   0.71903867 0.038331077 0.078030825     O
loop_
_geom_bond_atom_site_label_1
_geom_bond_atom_site_label_2
_geom_bond_distance
_geom_bond_site_symmetry_2
_ccdc_geom_bond_type
H0    C11    1.13952       .     S
H1    C10    1.13952       .     S
H2    C14    1.13985       .     S
H3    C15    1.13985       .     S
H4    C16    1.13991       .     A
H5    C17    1.13991       .     A
H6    C9     1.14013       .     A
H7    C8     1.14013       .     A
C8    H7     1.14013       .     A
C8    C10    1.39984       .     A
C8    N18    1.40060       .     S
C9    H6     1.14013       .     D
C9    C11    1.39984       .     A
C9    N19    1.40060       .     A
C10   H1     1.13952       .     A
C10   C8     1.39984       .     S
C10   C12    1.40064       .     A
C11   H0     1.13952       .     A
C11   C9     1.39984       .     S
C11   C13    1.40063       .     S
C12   C10    1.40064       .     A
C12   C14    1.39974       .     S
C12   N20    1.43100       .     S
C13   C11    1.40063       .     S
C13   C15    1.39974       .     S
C13   N21    1.43100       .     S
C14   H2     1.13985       .     S
C14   C12    1.39974       .     A
C14   C16    1.40000       .     A
C15   H3     1.13985       .     A
C15   C13    1.39974       .     A
C15   C17    1.40000       .     A
C16   H4     1.13991       .     A
C16   C14    1.40000       .     S
C16   N18    1.39975       .     D
C17   H5     1.13991       .     A
C17   C15    1.40000       .     A
C17   N19    1.39975       .     A
N18   C8     1.40060       .     S
N18   C16    1.39975       .     A
N18   Zn23   3.37464       .     A
N19   C9     1.40060       .     S
N19   C17    1.39975       .     S
N19   Zn22   3.35767   1_565     A
N20   C12    1.43100       .     S
N20   N21    1.24941       .     S
N21   C13    1.43100       .     S
N21   N20    1.24941       .     S
Zn22  N19    3.35767   1_545     S
Zn22  Zn23   2.99829       .     S
Zn22  O49    0.44230       .     A
Zn22  O50    1.81811       .     A
Zn22  O79    2.30187   1_545     A
Zn22  O81    1.64408       .     S
Zn23  N18    3.37464       .     A
Zn23  Zn22   2.99829       .     S
Zn23  O48    1.88732   1_545     A
Zn23  O51    0.36654       .     A
Zn23  O78    1.59850       .     A
Zn23  O80    2.35932       .     A
H24   C36    1.08410       .     D
H25   C35    1.08369       .     D
H26   C34    1.08383   1_655     S
H27   C37    1.08389       .     S
C28   C42    1.44182       .     A
C28   O48    1.27733   1_545     S
C28   O51    1.27758       .     S
C29   C43    1.43736       .     A
C29   O49    1.27726       .     A
C29   O50    1.27493       .     A
C30   C34    1.38778   1_655     A
C30   C39    1.44693   1_655     S
C30   Br47   1.93496       .     A
C31   C35    1.38734       .     S
C31   C38    1.44659       .     A
C31   Br44   1.93368       .     A
C32   C36    1.38687   1_554     S
C32   C41    1.44438   1_565     S
C32   Br45   1.92318       .     S
C33   C37    1.38703   1_654     S
C33   C40    1.44851   1_665     A
C33   Br46   1.93349   1_565     A
C34   H26    1.08383   1_455     A
C34   C30    1.38778   1_455     S
C34   C35    1.37139       .     A
C35   H25    1.08369       .     S
C35   C31    1.38734       .     A
C35   C34    1.37139       .     A
C36   H24    1.08410       .     A
C36   C32    1.38687   1_556     A
C36   C37    1.36981       .     D
C37   H27    1.08389       .     D
C37   C33    1.38703   1_456     S
C37   C36    1.36981       .     S
C38   C31    1.44659       .     A
C38   C39    1.42736       .     S
C38   C42    1.42764       .     S
C39   C30    1.44693   1_455     A
C39   C38    1.42736       .     A
C39   C43    1.42878   1_455     A
C40   C33    1.44851   1_445     A
C40   C41    1.42631       .     S
C40   C43    1.42712   1_455     A
C41   C32    1.44438   1_545     S
C41   C40    1.42631       .     A
C41   C42    1.42939       .     A
C42   C28    1.44182       .     S
C42   C38    1.42764       .     S
C42   C41    1.42939       .     D
C43   C29    1.43736       .     S
C43   C39    1.42878   1_655     S
C43   C40    1.42712   1_655     S
Br44  C31    1.93368       .     A
Br45  C32    1.92318       .     A
Br46  C33    1.93349   1_545     S
Br47  C30    1.93496       .     A
O48   Zn23   1.88732   1_565     A
O48   C28    1.27733   1_565     S
O49   Zn22   0.44230       .     A
O49   C29    1.27726       .     A
O50   Zn22   1.81811       .     S
O50   C29    1.27493       .     S
O51   Zn23   0.36654       .     S
O51   C28    1.27758       .     S
H52   C67    1.08320       .     S
H53   C72    1.08341       .     S
H54   C73    1.08333       .     A
H55   C77    1.08584       .     A
H56   C71    1.08351       .     S
H57   C68    1.08154       .     S
H58   C64    1.07961   1_545     A
H59   C74    1.08392       .     A
H60   C76    1.08534       .     S
H61   C69    1.08275       .     A
C62   C65    1.45662   1_556     S
C62   C72    1.40107       .     A
C62   C73    1.40353   1_545     S
C63   C66    1.46094   1_545     D
C63   O78    1.29656       .     S
C63   O79    1.28982   1_545     D
C64   H58    1.07961   1_565     S
C64   C66    1.40228       .     S
C64   C71    1.39298       .     S
C65   C62    1.45662   1_554     A
C65   O80    1.29357       .     A
C65   O81    1.29286       .     S
C66   C63    1.46094   1_565     A
C66   C64    1.40228       .     A
C66   C67    1.40484       .     S
C67   H52    1.08320       .     A
C67   C66    1.40484       .     A
C67   C69    1.38232       .     S
C68   H57    1.08154       .     S
C68   C72    1.38571       .     S
C68   C75    1.40503   1_545     S
C69   H61    1.08275       .     S
C69   C67    1.38232       .     S
C69   C70    1.40070       .     A
C70   C69    1.40070       .     A
C70   C71    1.40029       .     S
C70   C76    1.46300       .     S
C71   H56    1.08351       .     A
C71   C64    1.39298       .     A
C71   C70    1.40029       .     S
C72   H53    1.08341       .     A
C72   C62    1.40107       .     S
C72   C68    1.38571       .     A
C73   H54    1.08333       .     S
C73   C62    1.40353   1_565     D
C73   C74    1.38785       .     S
C74   H59    1.08392       .     S
C74   C73    1.38785       .     S
C74   C75    1.39870       .     S
C75   C68    1.40503   1_565     S
C75   C74    1.39870       .     S
C75   C77    1.46069       .     S
C76   H60    1.08534       .     S
C76   C70    1.46300       .     S
C76   C77    1.34110       .     S
C77   H55    1.08584       .     S
C77   C75    1.46069       .     S
C77   C76    1.34110       .     S
O78   Zn23   1.59850       .     S
O78   C63    1.29656       .     S
O79   Zn22   2.30187   1_565     S
O79   C63    1.28982   1_565     S
O80   Zn23   2.35932       .     S
O80   C65    1.29357       .     S
O81   Zn22   1.64408       .     S
O81   C65    1.29286       .     S
