data_I
_chemical_name_common  '/home/sibivarshan_m7/MOFDiff/MOFDiff/results/nh3_target_22.0mmol/cif/sample_5'
_cell_length_a 12.42873
_cell_length_b 12.64538
_cell_length_c 18.75982
_cell_angle_alpha 100.73911
_cell_angle_beta  99.10883
_cell_angle_gamma 78.81570
_space_group_name_H-M_alt      'P 1'


loop_
_space_group_symop_operation_xyz
  'x, y, z' 

loop_
_atom_site_label
_atom_site_fract_x
_atom_site_fract_y
_atom_site_fract_z
_atom_site_type_symbol
H0    0.49144498 0.22045979 0.82732964     H
H1    0.2331627 0.23831479 0.21472614     H
H2    0.5182092 0.17256914 0.69958234     H
H3    0.21830416 0.19170725 0.33170867     H
H4    0.1650468 0.18830523 0.6396006     H
H5    0.57286906 0.16560683 0.38907117     H
H6    0.13839616 0.23597306 0.7678242     H
H7    0.58767724 0.21191387 0.2714457     H
C8    0.2994966 0.19530599 0.3191592     C
C9    0.3437917 0.17594683 0.65980434     C
C10   0.3945366 0.17426778 0.36916837     C
C11   0.23693824 0.19451694 0.68013686     C
C12   0.4982683 0.18080223 0.35127625     C
C13   0.22150207 0.22299738 0.75337243     C
C14   0.506643 0.20853658 0.28440472     C
C15   0.31274348 0.23292989 0.80713224     C
C16   0.4114465 0.22974361 0.23459001     C
C17   0.38393995 0.15580636 0.44210717     C
C18   0.35926783  0.15665 0.58259314     C
C19   0.2983426 0.25190187 0.8843505     C
C20   0.4207956 0.2479668 0.16153969     C
C21   0.41948432 0.21435349 0.78680336     C
C22   0.30785057 0.2231847 0.25248957     C
C23   0.43493515 0.18571682 0.7137121     C
N24   0.27057838 0.15840928 0.53026336     N
N25   0.4732289 0.14942756 0.49392337     N
N26   0.28272435 0.15798834 0.4612302     N
N27   0.46108094 0.14982793 0.5629631     N
O28   0.3855034 0.25157127 0.93235403     O
O29   0.33294424 0.25329363 0.11410588     O
O30   0.20072499 0.25722322 0.9023914     O
O31   0.5177228 0.24764174 0.14406858     O
Zn32  0.47781336 0.24737461 0.047871556    Zn
Zn33  0.23108041 0.26025012 8.965184e-05    Zn
H34   0.70764476 0.5455112 0.9892171     H
H35   0.69986165 0.15759753 0.9889868     H
H36   0.07031119 0.41167164 0.05696998     H
H37   0.4286235 0.47416008 0.93001443     H
H38   0.27103174 0.98803586 0.06657804     H
H39   0.7458179 0.16870615 0.11632043     H
H40   0.08183086 0.8800602 0.10108783     H
H41   0.90099406 0.5211565 0.024973836     H
C42   0.7060903 0.4607668 0.9916795     C
C43   0.10862446 0.09225451 0.08449417     C
C44   0.009713888 0.049036887 0.0765181     C
C45   0.9077238 0.119811915 0.07001744     C
C46   0.9045593 0.22093439 0.0475435     C
C47   0.0064703226 0.26277483 0.057126332     C
C48   0.8033097 0.28466836 0.019245394     C
C49   0.8034524 0.39403546 0.013637143     C
C50   0.9009614 0.43684444 0.029419642     C
C51   0.0004903078 0.3717509 0.04835904     C
C52   0.70267564 0.24336067 0.99337626     C
C53   0.60701054 0.4198346 0.97313094     C
C54   0.50546634 0.49886653 0.95443535     C
C55   0.21304345 0.02113632 0.105321854     C
C56   0.8133458 0.10209635 0.104776606     C
C57   0.013674021 0.9293683 0.07228807     C
N58   0.6067685 0.31057605 0.9727853     N
N59   0.106882095 0.19929901 0.07752074     N
O60   0.50635284 0.597062 0.96654606     O
O61   0.2305193 0.99183095 0.1650926     O
O62   0.8119385 0.016247185 0.12517746     O
O63   0.9424244 0.88349986 0.03329433     O
C64   0.32952094 0.5038996 0.07101442     C
C65   0.37175927 0.003037095 0.96096253     C
C66   0.24945493 0.54672223 0.015642056     C
C67   0.2707716 0.96175224 0.9416712     C
C68   0.26099625 0.641423 0.9919067     C
C69   0.2604308 0.8672494 0.96651495     C
C70   0.34081182 0.703712 0.027882228     C
C71   0.35202414 0.8044149 0.0016281039     C
C72   0.40787575 0.6709527 0.09017332     C
C73   0.45597774 0.8350536 0.008139886     C
C74   0.40304017 0.5721193 0.112558186     C
C75   0.4676241 0.9325587 0.98718745     C
C76   0.3512407 0.38400772 0.07279663     C
C77   0.3707931 0.12306726 0.97101605     C
C78   0.15129004 0.4975163 0.98048735     C
C79   0.17440452 0.012252927 0.8945944     C
C80   0.58068436 0.957175 0.99078155     C
C81   0.47199002 0.5437807 0.18085705     C
H82   0.52858925 0.78234446 0.029403007     H
H83   0.46425268 0.7228361 0.12161942     H
H84   0.20657304 0.66583604 0.94460016     H
H85   0.17971635 0.84351826 0.95819795     H
H86   0.12314461 0.49847195 0.92275494     H
H87   0.09167746 0.00070643425 0.89937884     H
H88   0.5958244 0.013812065 0.95809394     H
H89   0.45489925 0.4803139 0.20702583     H
O90   0.28043258 0.32751152 0.03662692     O
O91   0.27993014 0.18701243 0.95620906     O
O92   0.44691744 0.33704582 0.09809146     O
O93   0.4548154 0.16147399 0.0063396995     O
O94   0.09641649 0.4628176 0.016654423     O
O95   0.18681146 0.061164618 0.84696615     O
O96   0.65864664 0.91333485 0.029429035     O
O97   0.5474368 0.5925788 0.20968519     O
loop_
_geom_bond_atom_site_label_1
_geom_bond_atom_site_label_2
_geom_bond_distance
_geom_bond_site_symmetry_2
_ccdc_geom_bond_type
H0    C21    1.08328       .     D
H1    C22    1.08332       .     S
H2    C23    1.08296       .     S
H3    C8     1.08298       .     A
H4    C11    1.08290       .     A
H5    C12    1.08298       .     S
H6    C13    1.08335       .     S
H7    C14    1.08322       .     A
C8    H3     1.08298       .     A
C8    C10    1.40230       .     S
C8    C22    1.38527       .     A
C9    C11    1.40370       .     S
C9    C18    1.46044       .     A
C9    C23    1.40222       .     S
C10   C8     1.40230       .     S
C10   C12    1.40369       .     D
C10   C17    1.46020       .     S
C11   H4     1.08290       .     S
C11   C9     1.40370       .     D
C11   C13    1.38792       .     S
C12   H5     1.08298       .     S
C12   C10    1.40369       .     A
C12   C14    1.38819       .     A
C13   H6     1.08335       .     S
C13   C11    1.38792       .     S
C13   C15    1.40172       .     A
C14   H7     1.08322       .     A
C14   C12    1.38819       .     S
C14   C16    1.40191       .     A
C15   C13    1.40172       .     S
C15   C19    1.45738       .     A
C15   C21    1.40233       .     S
C16   C14    1.40191       .     D
C16   C20    1.45709       .     S
C16   C22    1.40220       .     D
C17   C10    1.46020       .     S
C17   N25    1.35495       .     S
C17   N26    1.35562       .     A
C18   C9     1.46044       .     A
C18   N24    1.35473       .     S
C18   N27    1.35561       .     S
C19   C15    1.45738       .     A
C19   O28    1.29433       .     A
C19   O30    1.29651       .     S
C20   C16    1.45709       .     A
C20   O29    1.29412       .     S
C20   O31    1.29665       .     A
C21   H0     1.08328       .     S
C21   C15    1.40233       .     S
C21   C23    1.38546       .     D
C22   H1     1.08332       .     S
C22   C8     1.38527       .     S
C22   C16    1.40220       .     D
C23   H2     1.08296       .     S
C23   C9     1.40222       .     S
C23   C21    1.38546       .     A
N24   C18    1.35473       .     A
N24   N26    1.32627       .     S
N25   C17    1.35495       .     S
N25   N27    1.32645       .     A
N26   C17    1.35562       .     A
N26   N24    1.32627       .     S
N27   C18    1.35561       .     A
N27   N25    1.32645       .     S
O28   C19    1.29433       .     A
O28   Zn32   2.29072   1_556     S
O29   C20    1.29412       .     D
O29   Zn33   2.31411       .     S
O30   C19    1.29651       .     S
O30   Zn33   1.80651   1_556     S
O31   C20    1.29665       .     D
O31   Zn32   1.79380       .     S
Zn32  O28    2.29072   1_554     S
Zn32  O31    1.79380       .     S
Zn32  Zn33   3.03715       .     A
Zn32  N58    2.61208   1_554     A
Zn32  O92    1.36687       .     A
Zn32  O93    1.26618       .     S
Zn33  O29    2.31411       .     A
Zn33  O30    1.80651   1_554     A
Zn33  Zn32   3.03715       .     A
Zn33  N59    2.58372       .     A
Zn33  O90    1.19226       .     A
Zn33  O91    1.24898   1_554     S
H34   C42    1.08520       .     S
H35   C52    1.07920       .     A
H36   C51    1.06261       .     A
H37   C54    1.06935       .     A
H38   C55    1.07628   1_565     A
H39   C56    1.08448       .     A
H40   C57    1.08351       .     A
H41   C50    1.08488       .     A
C42   H34    1.08520       .     S
C42   C49    1.38624   1_556     S
C42   C53    1.39639       .     A
C43   C44    1.41571       .     S
C43   C55    1.47083       .     S
C43   N59    1.37971       .     D
C44   C43    1.41571       .     D
C44   C45    1.40510   1_455     S
C44   C57    1.49206   1_545     S
C45   C44    1.40510   1_655     D
C45   C46    1.41089       .     D
C45   C56    1.49996       .     S
C46   C45    1.41089       .     S
C46   C47    1.43841   1_655     S
C46   C48    1.43855       .     A
C47   C46    1.43841   1_455     A
C47   C51    1.40444       .     A
C47   N59    1.38666       .     S
C48   C46    1.43855       .     A
C48   C49    1.40676       .     A
C48   C52    1.42813   1_554     A
C49   C42    1.38624   1_554     A
C49   C48    1.40676       .     A
C49   C50    1.38946       .     S
C50   H41    1.08488       .     S
C50   C49    1.38946       .     A
C50   C51    1.38160   1_655     A
C51   H36    1.06261       .     A
C51   C47    1.40444       .     A
C51   C50    1.38160   1_455     A
C52   H35    1.07920       .     A
C52   C48    1.42813   1_556     A
C52   N58    1.36969       .     S
C53   C42    1.39639       .     S
C53   C54    1.48855       .     A
C53   N58    1.38101       .     S
C54   H37    1.06935       .     S
C54   C53    1.48855       .     D
C54   O60    1.22188       .     D
C55   H38    1.07628   1_545     S
C55   C43    1.47083       .     S
C55   O61    1.21996   1_545     D
C56   H39    1.08448       .     D
C56   C45    1.49996       .     S
C56   O62    1.22050       .     S
C57   H40    1.08351       .     S
C57   C44    1.49206   1_565     D
C57   O63    1.22137   1_455     D
N58   Zn32   2.61208   1_556     S
N58   C52    1.36969       .     A
N58   C53    1.38101       .     A
N59   Zn33   2.58372       .     S
N59   C43    1.37971       .     S
N59   C47    1.38666       .     A
O60   C54    1.22188       .     A
O61   C55    1.21996   1_565     S
O62   C56    1.22050       .     A
O63   C57    1.22137   1_655     S
C64   C66    1.42683       .     A
C64   C74    1.41996       .     S
C64   C76    1.49323       .     A
C65   C67    1.42087   1_545     A
C65   C75    1.42191   1_545     S
C65   C77    1.49214       .     S
C66   C64    1.42683       .     A
C66   C68    1.39230   1_554     A
C66   C78    1.48239   1_554     S
C67   C65    1.42088   1_565     A
C67   C69    1.39568       .     S
C67   C79    1.48353   1_565     A
C68   C66    1.39230   1_556     D
C68   C70    1.39750   1_556     S
C68   H84    1.08234       .     S
C69   C67    1.39568       .     D
C69   C71    1.40282   1_556     S
C69   H85    1.08192       .     D
C70   C68    1.39750   1_554     S
C70   C71    1.48591       .     D
C70   C72    1.40356       .     S
C71   C69    1.40282   1_554     S
C71   C70    1.48591       .     S
C71   C73    1.40032       .     D
C72   C70    1.40356       .     D
C72   C74    1.40522       .     S
C72   H83    1.08289       .     A
C73   C71    1.40032       .     A
C73   C75    1.40128   1_554     S
C73   H82    1.08147       .     S
C74   C64    1.41996       .     A
C74   C72    1.40522       .     A
C74   C81    1.48620       .     S
C75   C65    1.42191   1_565     A
C75   C73    1.40128   1_556     S
C75   C80    1.48589       .     A
C76   C64    1.49323       .     S
C76   O90    1.27259       .     A
C76   O92    1.28230       .     A
C77   C65    1.49214       .     S
C77   O91    1.27925       .     S
C77   O93    1.27407   1_556     A
C78   C66    1.48239   1_556     A
C78   H86    1.08572       .     S
C78   O94    1.22129   1_556     A
C79   C67    1.48353   1_545     S
C79   H87    1.08577       .     A
C79   O95    1.22116       .     D
C80   C75    1.48589       .     S
C80   H88    1.08483   1_565     S
C80   O96    1.22101   1_556     D
C81   C74    1.48620       .     S
C81   H89    1.08453       .     D
C81   O97    1.22151       .     S
H82   C73    1.08147       .     S
H83   C72    1.08289       .     S
H84   C68    1.08234       .     S
H85   C69    1.08192       .     S
H86   C78    1.08572       .     S
H87   C79    1.08577       .     S
H88   C80    1.08483   1_545     S
H89   C81    1.08453       .     S
O90   Zn33   1.19226       .     S
O90   C76    1.27259       .     S
O91   Zn33   1.24898   1_556     S
O91   C77    1.27925       .     S
O92   Zn32   1.36687       .     S
O92   C76    1.28230       .     S
O93   Zn32   1.26618       .     S
O93   C77    1.27407   1_554     S
O94   C78    1.22129   1_554     S
O95   C79    1.22116       .     S
O96   C80    1.22101   1_554     S
O97   C81    1.22151       .     S
