data_I
_chemical_name_common  '/home/sibivarshan_m7/MOFDiff/MOFDiff/results/nh3_target_22.0mmol/cif/sample_0'
_cell_length_a 12.17014
_cell_length_b 12.26981
_cell_length_c 23.27867
_cell_angle_alpha 96.48111
_cell_angle_beta  92.92882
_cell_angle_gamma 81.05649
_space_group_name_H-M_alt      'P 1'


loop_
_space_group_symop_operation_xyz
  'x, y, z' 

loop_
_atom_site_label
_atom_site_fract_x
_atom_site_fract_y
_atom_site_fract_z
_atom_site_type_symbol
C0    0.82235396 0.49952137 0.71853346     C
C1    0.9614342 0.1722525 0.48466763     C
C2    0.8520893 0.42957428 0.6685577     C
C3    0.93164295 0.24248098 0.5345479     C
C4    0.8772611 0.37044016 0.6261581     C
C5    0.9064747 0.3017733 0.5768923     C
O6    0.7221944 0.51527584 0.7336487     O
O7    0.061614633 0.1563807 0.46959823     O
O8    0.8878676 0.12517907 0.4556551     O
O9    0.8959414 0.5464775 0.74759185     O
O10   0.85921204 0.48428392 0.9500989     O
O11   0.8945599 0.29409555 0.9233329     O
C12   0.90057003 0.28788772 0.23846008     C
C13   0.87897605 0.38092378 0.96229976     C
C14   0.8964135 0.30911222 0.17950736     C
C15   0.89288354 0.32702407 0.12986049     C
C16   0.88821125 0.3462251 0.07159888     C
C17   0.8840005 0.3619862 0.02160869     C
O18   0.99106014 0.28930387 0.26791793     O
O19   0.81152606 0.2815686 0.2634535     O
H20   0.7527833 0.73921466 0.79675436     H
H21   0.7164831 0.9152734 0.8227827     H
H22   0.92079854 0.92312866 0.9421952     H
H23   0.91861933 0.74151945 0.93523645     H
H24   0.052554846 0.08673835 0.740719     H
H25   0.24755013 0.7189377 0.7464864     H
H26   0.11433363 0.07530296 0.94962126     H
H27   0.15219557 0.7621224 0.9763104     H
H28   0.7876282 0.087916136 0.7027395     H
H29   0.89745796 0.73763174 0.648541     H
C30   0.79919714 0.9030126 0.8032875     C
C31   0.83106786 0.7723265 0.7915238     C
C32   0.8540587 0.904978 0.91010964     C
C33   0.8621767 0.77459675 0.9001932     C
C34   0.87846893 0.9535296 0.8524639     C
C35   0.91604704 0.72734696 0.84022146     C
C36   0.03250861 0.77453417 0.83874834     C
C37   0.0068968534 0.91049075 0.83798456     C
C38   0.9318523 0.60171497 0.8364078     C
C39   0.8547263 0.07930541 0.86009496     C
C40   0.027705431   0.9547 0.7804238     C
C41   0.10517526 0.7212627 0.7879662     C
C42   0.08846164 0.96660197 0.8801117     C
C43   0.10445964 0.73503137 0.8920222     C
C44   0.7682994 0.9643091 0.7499036     C
C45   0.8579603 0.72105724 0.7299534     C
N46   0.9444023 0.5048343 0.83349764     N
N47   0.8380862 0.17627478 0.8656685     N
N48   0.75020057 0.9574035 0.93813545     N
N49   0.75619626 0.7339683 0.9077423     N
O50   0.67356926 0.022586346 0.9122245     O
O51   0.7347182 0.93864423 0.9908264     O
O52   0.66214705 0.7789361 0.88533896     O
O53   0.7549973 0.6556729 0.94096094     O
O54   0.0306319 0.8966312 0.73427063     O
O55   0.040905714 0.066292286 0.78072274     O
O56   0.07852304 0.6455049 0.75423497     O
O57   0.2074629 0.7570263 0.7821063     O
O58   0.18860877 0.9440033 0.8723935     O
O59   0.05119109 0.044908643 0.9261687     O
O60   0.1581881 0.641439 0.88876367     O
O61   0.103682995 0.8001426 0.9454679     O
O62   0.6937038 0.93642956 0.7168779     O
O63   0.8181862 0.054923892 0.7393571     O
O64   0.8542165 0.6221152 0.7172605     O
O65   0.88255113 0.78365296 0.68711483     O
Zn66  0.9107373 0.21030171 0.85229206    Zn
Zn67  0.8711674 0.4619664 0.8478285    Zn
Zn68  0.9011663 0.4617318 0.36615738    Zn
Zn69  0.8911902 0.21346115 0.33612788    Zn
H70   0.49518916 0.6708937 0.28654942     H
H71   0.30301106 0.98985785 0.39540464     H
C72   0.752863 0.79870415 0.35183313     C
C73   0.014023662 0.88602936 0.39407685     C
C74   0.7784467 0.6812186 0.34261048     C
C75   0.0010164976 0.99530816 0.3791086     C
C76   0.96875155 0.6949473 0.36465284     C
C77   0.8173321 0.9796631 0.34437734     C
C78   0.9418813 0.81393594 0.36964038     C
C79   0.8369373 0.86398935 0.3529894     C
S80   0.12946928 0.0438478 0.3741478     S
S81   0.6565144 0.61742604 0.3261033     S
I82   0.67267215 0.032428384 0.29313603     I
I83   0.14066482 0.6323438 0.37516606     I
I84   0.60644263 0.87203825 0.399197     I
I85   0.07934916 0.8655517 0.48009354     I
N86   0.89969176 0.046314955 0.3571422     N
N87   0.8886043 0.62659943 0.3478263     N
O88   0.15058494 0.051208258 0.3117439     O
O89   0.12820172 0.15442812 0.40852514     O
O90   0.23577821 0.95546246 0.3995547     O
O91   0.6753245 0.5073352 0.2912313     O
O92   0.6032383 0.6056813 0.38151643     O
O93   0.5661057 0.70135283 0.2875019     O
H94   0.28182587 0.5119365 0.82187545     H
H95   0.43519813 0.52281624 0.8728286     H
H96   0.34153613 0.16842173 0.8551456     H
H97   0.50083697 0.16893461 0.82604957     H
C98   0.97710925 0.33156717 0.8358531     C
C99   0.8039162 0.35246506 0.8620807     C
C100  0.25292632 0.43620038 0.82980883     C
C101  0.4912819 0.44607273 0.86349285     C
C102  0.13834351 0.4333129 0.8255977     C
C103  0.6053517 0.44995886 0.8686844     C
C104  0.09776255 0.33305743 0.8319304     C
C105  0.682561 0.35000432 0.86120164     C
C106  0.1756728 0.23546544 0.8362908     C
C107  0.64034885 0.2478897 0.8501827     C
C108  0.2875474 0.2430098 0.845663     C
C109  0.52718914 0.24794768 0.8398768     C
C110  0.32872558 0.34230807 0.84179074     C
C111  0.4505155 0.34583226 0.8478303     C
I112  0.14378862 0.06830199 0.8208595     I
I113  0.73206997 0.08493557 0.8530787     I
N114  0.065804586 0.5305854 0.8104804     N
N115  0.639723 0.5566192 0.8828097     N
O116  0.9098301 0.4245024 0.8466206     O
O117  0.8404579 0.44741866 0.86938983     O
O118  0.9410661 0.2368926 0.83057547     O
O119  0.871719 0.25980946 0.85334533     O
O120  0.9973221 0.5235777 0.7658691     O
O121  0.08213731 0.6282086 0.8342458     O
O122  0.6840342 0.5814372 0.93370867     O
O123  0.6036589 0.63597953 0.8508167     O
H124  0.28645158 0.5112263 0.32892972     H
H125  0.44047695 0.51876515 0.37974498     H
H126  0.3468278 0.1641964 0.35533303     H
H127  0.50565934 0.16710868 0.32626215     H
C128  0.98216087 0.32862642 0.33956861     C
C129  0.80901545 0.34927562 0.3654642     C
C130  0.257723 0.4345925 0.33537772     C
C131  0.49645752 0.44252524 0.3689204     C
C132  0.1431254 0.43178102 0.3312155     C
C133  0.6105554 0.44626728 0.37407842     C
C134  0.10271313 0.3306331 0.33560294     C
C135  0.68769455 0.34663957 0.36463204     C
C136  0.18071808 0.23252462 0.33799037     C
C137  0.64540845 0.24487261 0.35171285     C
C138  0.2926781 0.23963274 0.34738243     C
C139  0.5321458 0.24545892 0.34153995     C
C140  0.33372277 0.33964393 0.34542513     C
C141  0.45555007 0.34297636 0.3514144     C
I142  0.14873558 0.06581299 0.31940868     I
I143  0.73724055 0.081299275 0.35136345     I
N144  0.070338495 0.5303539 0.31811038     N
N145  0.6450445 0.5523577 0.39018372     N
O146  0.9149988 0.42099184 0.352141     O
O147  0.8455855 0.44411236 0.37455583     O
O148  0.9461175 0.23392433 0.3325042     O
O149  0.87672925 0.25704548 0.35491964     O
O150  0.0012580187 0.5264049 0.27361965     O
O151  0.086937256 0.6266461 0.3436494     O
O152  0.6900397 0.573682 0.44129694     O
O153  0.6084927 0.6342388 0.35990572     O
loop_
_geom_bond_atom_site_label_1
_geom_bond_atom_site_label_2
_geom_bond_distance
_geom_bond_site_symmetry_2
_ccdc_geom_bond_type
C0    C2     1.39356       .     D
C0    O6     1.26580       .     S
C0    O9     1.26574       .     S
C1    C3     1.39364       .     T
C1    O7     1.26567   1_655     S
C1    O8     1.26580       .     T
C2    C0     1.39356       .     S
C2    C4     1.18093       .     D
C3    C1     1.39364       .     S
C3    C5     1.18085       .     D
C4    C2     1.18093       .     S
C4    C5     1.37183       .     S
C5    C3     1.18085       .     T
C5    C4     1.37183       .     S
O6    C0     1.26580       .     T
O6    Zn66   5.09031       .     S
O7    C1     1.26567   1_455     D
O7    Zn69   3.71846   1_455     S
O8    C1     1.26580       .     D
O8    Zn69   3.10200       .     S
O9    C0     1.26574       .     T
O9    Zn67   2.70668       .     T
O10   C13    1.31391       .     D
O10   Zn67   2.37483       .     S
O11   C13    1.31544       .     S
O11   Zn66   1.84856       .     S
C12   C14    1.42239       .     S
C12   O18    1.26864       .     D
C12   O19    1.27264       .     S
C13   O10    1.31391       .     T
C13   O11    1.31544       .     T
C13   C17    1.42241   1_556     D
C14   C12    1.42239       .     S
C14   C15    1.19798       .     S
C15   C14    1.19798       .     S
C15   C16    1.39937       .     S
C16   C15    1.39937       .     S
C16   C17    1.19827       .     S
C17   C13    1.42241   1_554     S
C17   C16    1.19827       .     S
O18   C12    1.26864       .     D
O18   Zn68   3.05720       .     D
O19   C12    1.27264       .     S
O19   Zn68   3.32910       .     S
H20   C31    1.10949       .     S
H21   C30    1.10729       .     D
H22   C32    1.10630       .     S
H23   C33    1.11033       .     D
H24   O55    1.01367       .     S
H25   O57    1.01338       .     D
H26   O59    1.01387       .     S
H27   O61    1.01407       .     S
H28   O63    1.01364       .     S
H29   O65    1.01410       .     S
C30   H21    1.10729       .     D
C30   C31    1.58587       .     S
C30   C34    1.59320       .     S
C30   C44    1.52534       .     S
C31   H20    1.10949       .     S
C31   C30    1.58587       .     S
C31   C35    1.58216       .     S
C31   C45    1.52889       .     S
C32   H22    1.10630       .     T
C32   C33    1.57863       .     S
C32   C34    1.58748       .     T
C32   N48    1.47436       .     S
C33   H23    1.11033       .     S
C33   C32    1.57863       .     S
C33   C35    1.58353       .     D
C33   N49    1.47845       .     S
C34   C30    1.59320       .     S
C34   C32    1.58748       .     D
C34   C37    1.61010   1_655     S
C34   C39    1.51703   1_565     S
C35   C31    1.58216       .     S
C35   C33    1.58353       .     S
C35   C36    1.61551   1_655     S
C35   C38    1.51648       .     D
C36   C35    1.61551   1_455     S
C36   C37    1.65067       .     S
C36   C41    1.53605       .     D
C36   C43    1.55962       .     S
C37   C34    1.61010   1_455     S
C37   C36    1.65067       .     S
C37   C40    1.54767       .     S
C37   C42    1.54326       .     S
C38   C35    1.51648       .     S
C38   N46    1.16935       .     D
C39   C34    1.51703   1_545     D
C39   N47    1.16892       .     S
C40   C37    1.54767       .     S
C40   O54    1.21919       .     S
C40   O55    1.40240   1_565     D
C41   C36    1.53605       .     S
C41   O56    1.22015       .     D
C41   O57    1.40055       .     S
C42   C37    1.54326       .     D
C42   O58    1.22503       .     S
C42   O59    1.40001   1_565     S
C43   C36    1.55962       .     S
C43   O60    1.22637       .     S
C43   O61    1.40025       .     D
C44   C30    1.52534       .     S
C44   O62    1.22397       .     S
C44   O63    1.39706   1_565     S
C45   C31    1.52889       .     S
C45   O64    1.22394       .     S
C45   O65    1.39598       .     S
N46   C38    1.16935       .     S
N46   Zn67   1.18240       .     T
N47   C39    1.16892       .     S
N47   Zn66   1.10693       .     T
N48   C32    1.47436       .     S
N48   O50    1.30105   1_565     S
N48   O51    1.30146       .     S
N49   C33    1.47845       .     D
N49   O52    1.30158       .     S
N49   O53    1.30165       .     S
O50   N48    1.30105   1_545     D
O51   N48    1.30146       .     S
O52   N49    1.30158       .     S
O53   N49    1.30165       .     S
O54   C40    1.21919       .     S
O55   H24    1.01367       .     S
O55   C40    1.40240   1_545     D
O56   C41    1.22015       .     S
O57   H25    1.01338       .     S
O57   C41    1.40055       .     D
O58   C42    1.22503       .     S
O59   H26    1.01387       .     S
O59   C42    1.40001   1_545     S
O60   C43    1.22637       .     S
O61   H27    1.01407       .     S
O61   C43    1.40025       .     S
O62   C44    1.22397       .     S
O63   H28    1.01364       .     S
O63   C44    1.39706   1_545     S
O64   C45    1.22394       .     S
O65   H29    1.01410       .     S
O65   C45    1.39598       .     S
Zn66  O6     5.09031       .     A
Zn66  O11    1.84856       .     A
Zn66  N47    1.10693       .     S
Zn66  Zn67   3.06311       .     A
Zn66  O118   0.76941       .     A
Zn66  O119   0.70939       .     A
Zn67  O9     2.70668       .     A
Zn67  O10    2.37483       .     A
Zn67  N46    1.18240       .     A
Zn67  Zn66   3.06311       .     A
Zn67  O116   0.60388       .     S
Zn67  O117   0.69541       .     A
Zn68  O18    3.05720       .     A
Zn68  O19    3.32910       .     S
Zn68  Zn69   3.06733       .     S
Zn68  N87    2.09514       .     S
Zn68  O146   0.57210       .     S
Zn68  O147   0.78169       .     S
Zn69  O7     3.71846   1_655     S
Zn69  O8     3.10200       .     S
Zn69  Zn68   3.06733       .     S
Zn69  N86    2.14740       .     S
Zn69  O148   0.76141       .     S
Zn69  O149   0.65887       .     S
H70   O93    0.99071       .     S
H71   O90    0.99075       .     A
C72   C74    1.42072       .     A
C72   C79    1.39157       .     S
C72   I84    2.16309       .     A
C73   C75    1.40646       .     A
C73   C78    1.39777   1_455     A
C73   I85    2.14322       .     A
C74   C72    1.42072       .     A
C74   S81    1.78811       .     A
C74   N87    1.40839       .     A
C75   C73    1.40646       .     S
C75   S80    1.77070   1_565     A
C75   N86    1.39343   1_465     A
C76   C78    1.43844       .     S
C76   I83    2.12549   1_655     S
C76   N87    1.39615       .     S
C77   C79    1.43721       .     S
C77   I82    2.13233   1_565     S
C77   N86    1.38973   1_565     S
C78   C73    1.39777   1_655     D
C78   C76    1.43844       .     S
C78   C79    1.38488       .     S
C79   C72    1.39157       .     D
C79   C77    1.43721       .     S
C79   C78    1.38488       .     A
S80   C75    1.77070   1_545     A
S80   O88    1.50315       .     D
S80   O89    1.49372       .     S
S80   O90    1.68230   1_545     A
S81   C74    1.78811       .     A
S81   O91    1.48705       .     S
S81   O92    1.50386       .     A
S81   O93    1.68347       .     S
I82   C77    2.13233   1_545     A
I83   C76    2.12549   1_455     S
I84   C72    2.16309       .     A
I85   C73    2.14322       .     A
N86   Zn69   2.14740       .     S
N86   C75    1.39343   1_645     S
N86   C77    1.38973   1_545     A
N87   Zn68   2.09514       .     A
N87   C74    1.40839       .     A
N87   C76    1.39615       .     S
O88   S80    1.50315       .     S
O89   S80    1.49372       .     A
O90   H71    0.99075       .     D
O90   S80    1.68230   1_565     D
O91   S81    1.48705       .     S
O92   S81    1.50386       .     D
O93   H70    0.99071       .     S
O93   S81    1.68347       .     D
H94   C100   1.08090       .     S
H95   C101   1.08115       .     S
H96   C108   1.07788       .     D
H97   C109   1.07797       .     S
C98   C104   1.47892   1_655     A
C98   O116   1.30372       .     A
C98   O118   1.29523       .     D
C99   C105   1.48096       .     S
C99   O117   1.30104       .     A
C99   O119   1.29923       .     A
C100  H94    1.08090       .     S
C100  C102   1.39860       .     A
C100  C110   1.40421       .     S
C101  H95    1.08115       .     A
C101  C103   1.39508       .     S
C101  C111   1.40065       .     A
C102  C100   1.39860       .     A
C102  C104   1.41989       .     S
C102  N114   1.43636       .     S
C103  C101   1.39508       .     A
C103  C105   1.42393       .     A
C103  N115   1.43346       .     A
C104  C98    1.47892   1_455     S
C104  C102   1.41989       .     S
C104  C106   1.41696       .     A
C105  C99    1.48096       .     D
C105  C103   1.42393       .     D
C105  C107   1.41903       .     S
C106  C104   1.41696       .     D
C106  C108   1.38355       .     S
C106  I112   2.13386       .     D
C107  C105   1.41903       .     S
C107  C109   1.38568       .     S
C107  I113   2.13940       .     D
C108  H96    1.07788       .     S
C108  C106   1.38355       .     A
C108  C110   1.40105       .     A
C109  H97    1.07797       .     D
C109  C107   1.38568       .     S
C109  C111   1.40231       .     A
C110  C100   1.40421       .     A
C110  C108   1.40105       .     S
C110  C111   1.48856       .     A
C111  C101   1.40065       .     S
C111  C109   1.40231       .     A
C111  C110   1.48856       .     S
I112  C106   2.13386       .     A
I113  C107   2.13940       .     A
N114  C102   1.43636       .     S
N114  O120   1.30160   1_455     S
N114  O121   1.30136       .     A
N115  C103   1.43346       .     A
N115  O122   1.30067       .     A
N115  O123   1.30111       .     S
O116  Zn67   0.60388       .     S
O116  C98    1.30372       .     A
O117  Zn67   0.69541       .     D
O117  C99    1.30104       .     D
O118  Zn66   0.76941       .     S
O118  C98    1.29523       .     D
O119  Zn66   0.70939       .     S
O119  C99    1.29923       .     D
O120  N114   1.30160   1_655     S
O121  N114   1.30136       .     S
O122  N115   1.30067       .     D
O123  N115   1.30111       .     S
H124  C130   1.08090       .     A
H125  C131   1.08115       .     A
H126  C138   1.07788       .     D
H127  C139   1.07797       .     S
C128  C134   1.47892   1_655     A
C128  O146   1.30372       .     A
C128  O148   1.29523       .     S
C129  C135   1.48096       .     A
C129  O147   1.30104       .     S
C129  O149   1.29923       .     A
C130  H124   1.08090       .     S
C130  C132   1.39860       .     A
C130  C140   1.40421       .     A
C131  H125   1.08115       .     S
C131  C133   1.39508       .     S
C131  C141   1.40065       .     A
C132  C130   1.39860       .     A
C132  C134   1.41989       .     A
C132  N144   1.43636       .     S
C133  C131   1.39508       .     S
C133  C135   1.42393       .     A
C133  N145   1.43346       .     D
C134  C128   1.47892   1_455     D
C134  C132   1.41989       .     S
C134  C136   1.41696       .     D
C135  C129   1.48096       .     S
C135  C133   1.42393       .     S
C135  C137   1.41903       .     S
C136  C134   1.41696       .     S
C136  C138   1.38355       .     S
C136  I142   2.13386       .     S
C137  C135   1.41903       .     S
C137  C139   1.38569       .     S
C137  I143   2.13940       .     S
C138  H126   1.07788       .     S
C138  C136   1.38355       .     S
C138  C140   1.40105       .     S
C139  H127   1.07797       .     S
C139  C137   1.38569       .     S
C139  C141   1.40231       .     S
C140  C130   1.40421       .     S
C140  C138   1.40105       .     S
C140  C141   1.48856       .     S
C141  C131   1.40065       .     S
C141  C139   1.40231       .     S
C141  C140   1.48856       .     S
I142  C136   2.13386       .     S
I143  C137   2.13940       .     S
N144  C132   1.43636       .     S
N144  O150   1.30160       .     S
N144  O151   1.30136       .     S
N145  C133   1.43346       .     S
N145  O152   1.30067       .     S
N145  O153   1.30111       .     S
O146  Zn68   0.57210       .     S
O146  C128   1.30372       .     S
O147  Zn68   0.78169       .     S
O147  C129   1.30104       .     S
O148  Zn69   0.76141       .     S
O148  C128   1.29523       .     S
O149  Zn69   0.65887       .     S
O149  C129   1.29923       .     S
O150  N144   1.30160       .     S
O151  N144   1.30136       .     S
O152  N145   1.30067       .     S
O153  N145   1.30111       .     S
