data_I
_chemical_name_common  '/home/sibivarshan_m7/MOFDiff/MOFDiff/results/nh3_target_22.0mmol/cif/sample_2'
_cell_length_a 18.26810
_cell_length_b 18.23072
_cell_length_c 23.78402
_cell_angle_alpha 104.29936
_cell_angle_beta  104.79630
_cell_angle_gamma 100.79420
_space_group_name_H-M_alt      'P 1'


loop_
_space_group_symop_operation_xyz
  'x, y, z' 

loop_
_atom_site_label
_atom_site_fract_x
_atom_site_fract_y
_atom_site_fract_z
_atom_site_type_symbol
H0    0.53906757 0.52865016 0.46033314     H
H1    0.08631126 0.19962452 0.6542179     H
H2    0.3206126 0.39777038 0.3189119     H
H3    0.3055459 0.3287533 0.79536104     H
H4    0.25669524 0.45825887 0.51280236     H
H5    0.369158 0.26865387 0.6014723     H
H6    0.20497596 0.41036293 0.5868543     H
H7    0.42091954 0.31658542 0.52743375     H
C8    0.16062187 0.23644552 0.77541935     C
C9    0.46510988 0.49109122 0.33903164     C
C10   0.4800697 0.49070418 0.44601265     C
C11   0.14551872 0.23710799 0.6684684     C
C12   0.45060107 0.46851426 0.48997107     C
C13   0.17506388 0.2591145 0.6244938     C
C14   0.3733148 0.41922674 0.47116295     C
C15   0.2525988 0.30780363  0.64319     C
C16   0.3269304 0.39415327 0.4091643     C
C17   0.2991664 0.33250484 0.7051223     C
C18   0.35711634 0.41776854 0.36638975     C
C19   0.26891103 0.3090842 0.7479382     C
C20   0.43371394 0.46595803 0.3843624     C
C21   0.19205886 0.26145223 0.7300599     C
C22   0.28123838 0.4167984 0.531986     C
C23   0.34462512 0.3101306 0.58229005     C
C24   0.2520485 0.38977733 0.57395124     C
C25   0.37383044 0.33716986 0.54033816     C
C26   0.28371054 0.3364342 0.5992079     C
C27   0.34217447 0.39052585 0.5150889     C
N28   0.49943388 0.49714884 0.5531101     N
N29   0.1260683 0.23091283 0.56143415     N
Cl30  0.23136553 0.33060014 0.38292855    Cl
Cl31  0.39504534 0.39541262 0.73125714    Cl
O32   0.089590415 0.19249766 0.7580515     O
O33   0.536135 0.53505427 0.35640228     O
O34   0.20460868 0.25809622 0.8318413     O
O35   0.4211167 0.4694557 0.28261253     O
O36   0.46899822 0.5146941 0.59689444     O
O37   0.5755769 0.514102 0.5668741     O
O38   0.049990084 0.21526708 0.5478266     O
O39   0.15616725 0.21234503 0.51756126     O
C40   0.7883195 0.4627503 0.059216175     C
C41   0.8386135 0.2680361 0.056648653     C
C42   0.7696283 0.5356123 0.060207188     C
C43   0.85729736 0.1952023 0.055658     C
C44   0.80421627 0.4011572 0.058403227     C
C45   0.8227198 0.3296165 0.057469133     C
O46   0.69807124 0.5369949 0.04189206     O
O47   0.82455814 0.59911674 0.079409555     O
O48   0.8023947 0.13172871 0.036472816     O
O49   0.9288192 0.1938199 0.073971815     O
Zn50  0.4999432 0.51592493 0.05786293    Zn
Zn51  0.50183845 0.6484469 0.9937246    Zn
Zn52  0.5904617 0.6935564 0.13538502    Zn
Zn53  0.6576708 0.59706396 0.04022756    Zn
O54   0.5624875 0.61374503 0.05680273     O
C55   0.3707761 0.48298642 0.0742406     C
C56   0.34124234 0.39916968 0.055004768     C
C57   0.30925107 0.3297296 0.035935998     C
C58   0.26734948 0.24851412 0.017901726     C
O59   0.20325537 0.22036855 0.9717211     O
O60   0.2902662 0.21187586 0.055911485     O
O61   0.42133096 0.5186694 0.13012575     O
O62   0.31599322 0.51460445 0.05323136     O
C63   0.9103428 0.95324665 0.08377608     C
C64   0.7133184 0.775155 0.029076558     C
C65   0.78262955 0.8378155 0.048356194     C
C66   0.8410721 0.89055115 0.06454829     C
O67   0.97457474 0.93950737 0.0809451     O
O68   0.71551114 0.7052072 0.008928636     O
O69   0.64908385 0.7889006 0.031876337     O
O70   0.90814745 0.02320075 0.10389285     O
Zn71  0.11193434 0.07278432 0.11994807    Zn
Zn72  0.98286164 0.1614602 0.082790054    Zn
Zn73  0.13871667 0.19535464 0.048683323    Zn
O74   0.06080981 0.1151792 0.058313143     O
Zn75  0.009733247 0.031126136 0.9818346    Zn
C76   0.371842 0.7946848 0.036850095     C
C77   0.20114726 0.9895555 0.09171218     C
C78   0.41847664 0.74144524 0.021861542     C
C79   0.24777713 0.9363165 0.076731384     C
C80   0.28687406 0.89168704 0.0641592     C
C81   0.33274984 0.8393137 0.049414475     C
O82   0.2259987 0.062711954 0.097849056     O
O83   0.13485816 0.96370566 0.09889349     O
O84   0.46887204 0.72886026 0.063324384     O
O85   0.4102701 0.70586616 0.96683913     O
H86   0.8302866 0.96000224 0.819132     H
H87   0.79467916 0.77431834 0.2973063     H
H88   0.05959916 0.9808812 0.7976608     H
H89   0.5652068 0.75136876 0.3187506     H
H90   0.88879794 0.0059839487 0.6085119     H
H91   0.7361613 0.7268108 0.5078985     H
H92   0.829989 0.9561215 0.4964634     H
H93   0.7949412 0.7766846 0.6199682     H
C94   0.6400641 0.7338446 0.23333107     C
C95   0.9848064 0.99958575 0.88309145     C
C96   0.86718947 0.9546551 0.7900214     C
C97   0.757729 0.7791155 0.32640818     C
C98   0.8322031 0.9308464 0.72644883     C
C99   0.7926873 0.80270535 0.3899634     C
C100  0.8806254 0.9242894 0.68851876     C
C101  0.74423546 0.8085692 0.42789167     C
C102  0.96277803 0.94265234 0.71489066     C
C103  0.66204906 0.7897602 0.4015291     C
C104  0.9963327 0.96716017 0.7782358     C
C105  0.628494 0.7654706 0.33818537     C
C106  0.9489905 0.9732176 0.81620455     C
C107  0.67588365 0.7600734 0.3002167     C
C108  0.85565567 0.94503313  0.58668     C
C109  0.76929903 0.78777283 0.52974015     C
C110  0.8222872 0.9168428 0.52328503     C
C111  0.8026484 0.8159697 0.5931369     C
C112  0.7790125 0.83818185 0.4946988     C
C113  0.8459137 0.89463824 0.62172395     C
N114  0.7480904 0.9145469 0.7015225     N
N115  0.8768159 0.81949854 0.4149007     N
Cl116 0.025569558 0.932915 0.669794    Cl
Cl117 0.59918594 0.79872096 0.44662717    Cl
O118  0.68474776 0.7292286 0.19905615     O
O119  0.9401235 0.0042191744 0.91736645     O
O120  0.5644769 0.7150825 0.2097399     O
O121  0.060394168 0.018365264 0.9066826     O
O122  0.71648407 0.9319142 0.6526218     O
O123  0.7031214 0.8903373 0.73144174     O
O124  0.92168695 0.8449598 0.3853587     O
O125  0.9085832 0.8012786 0.463338     O
loop_
_geom_bond_atom_site_label_1
_geom_bond_atom_site_label_2
_geom_bond_distance
_geom_bond_site_symmetry_2
_ccdc_geom_bond_type
H0    C10    1.08306       .     D
H1    C11    1.08315       .     S
H2    C18    1.08337       .     S
H3    C19    1.08324       .     A
H4    C22    1.08320       .     A
H5    C23    1.08336       .     S
H6    C24    1.08318       .     S
H7    C25    1.08346       .     A
C8    C21    1.47067       .     A
C8    O32    1.29216       .     A
C8    O34    1.29270       .     S
C9    C20    1.47062       .     S
C9    O33    1.29216       .     A
C9    O35    1.29270       .     D
C10   H0     1.08306       .     D
C10   C12    1.40049       .     S
C10   C20    1.40235       .     A
C11   H1     1.08315       .     A
C11   C13    1.40024       .     S
C11   C21    1.40253       .     S
C12   C10    1.40049       .     A
C12   C14    1.41582       .     A
C12   N28    1.44136       .     S
C13   C11    1.40024       .     A
C13   C15    1.41572       .     S
C13   N29    1.44082       .     A
C14   C12    1.41582       .     S
C14   C16    1.40893       .     D
C14   C27    1.46662       .     S
C15   C13    1.41572       .     A
C15   C17    1.40891       .     A
C15   C26    1.46697       .     D
C16   C14    1.40893       .     S
C16   C18    1.39227       .     A
C16   Cl30   1.76306       .     A
C17   C15    1.40891       .     S
C17   C19    1.39236       .     A
C17   Cl31   1.76320       .     S
C18   H2     1.08337       .     A
C18   C16    1.39227       .     S
C18   C20    1.40039       .     D
C19   H3     1.08324       .     S
C19   C17    1.39236       .     D
C19   C21    1.40070       .     S
C20   C9     1.47062       .     S
C20   C10    1.40235       .     A
C20   C18    1.40039       .     A
C21   C8     1.47067       .     S
C21   C11    1.40253       .     S
C21   C19    1.40070       .     A
C22   H4     1.08320       .     A
C22   C24    1.39268       .     A
C22   C27    1.40115       .     S
C23   H5     1.08336       .     S
C23   C25    1.39269       .     A
C23   C26    1.40122       .     D
C24   H6     1.08318       .     D
C24   C22    1.39268       .     S
C24   C26    1.40104       .     A
C25   H7     1.08346       .     A
C25   C23    1.39269       .     S
C25   C27    1.40111       .     S
C26   C15    1.46697       .     A
C26   C23    1.40122       .     A
C26   C24    1.40104       .     S
C27   C14    1.46662       .     A
C27   C22    1.40115       .     S
C27   C25    1.40111       .     A
N28   C12    1.44136       .     S
N28   O36    1.30142       .     D
N28   O37    1.30152       .     S
N29   C13    1.44082       .     A
N29   O38    1.30147       .     A
N29   O39    1.30156       .     D
Cl30  C16    1.76306       .     S
Cl31  C17    1.76320       .     A
O32   C8     1.29216       .     A
O32   Zn73   6.72498   1_556     S
O33   C9     1.29216       .     A
O33   Zn50   6.87517       .     S
O34   C8     1.29270       .     A
O34   Zn73   5.90973   1_556     S
O35   C9     1.29270       .     D
O35   Zn50   6.08907       .     S
O36   N28    1.30142       .     D
O37   N28    1.30152       .     S
O38   N29    1.30147       .     S
O39   N29    1.30156       .     T
C40   C42    1.42833       .     S
C40   C44    1.20825       .     T
C41   C43    1.42778       .     S
C41   C45    1.20797       .     D
C42   C40    1.42833       .     S
C42   O46    1.27519       .     D
C42   O47    1.27493       .     S
C43   C41    1.42778       .     S
C43   O48    1.27432       .     T
C43   O49    1.27458       .     S
C44   C40    1.20825       .     T
C44   C45    1.40373       .     S
C45   C41    1.20797       .     D
C45   C44    1.40373       .     S
O46   C42    1.27519       .     S
O46   Zn53   1.43344       .     S
O47   C42    1.27493       .     S
O47   Zn53   2.94167       .     S
O48   C43    1.27432       .     S
O48   Zn72   3.09142       .     S
O49   C43    1.27458       .     S
O49   Zn72   1.24105       .     S
Zn50  O33    6.87517       .     D
Zn50  O35    6.08907       .     S
Zn50  O54    1.93910       .     S
Zn50  O61    2.50278       .     T
Zn51  O54    1.93931   1_556     S
Zn51  O62    4.53216   1_556     D
Zn51  O84    2.21205   1_556     S
Zn51  O85    2.17785       .     D
Zn52  O54    1.93951       .     S
Zn52  O69    3.60445       .     S
Zn52  O118   1.85597       .     T
Zn52  O120   1.91377       .     S
Zn53  O46    1.43344       .     D
Zn53  O47    2.94167       .     S
Zn53  O54    1.93916       .     D
Zn53  O68    2.42981       .     D
O54   Zn50   1.93910       .     S
O54   Zn51   1.93931   1_554     S
O54   Zn52   1.93951       .     S
O54   Zn53   1.93916       .     S
C55   C56    1.43356       .     T
C55   O61    1.32803       .     D
C55   O62    1.29863       .     D
C56   C55    1.43356       .     S
C56   C57    1.20571       .     S
C57   C56    1.20571       .     S
C57   C58    1.43395       .     S
C58   C57    1.43395       .     T
C58   O59    1.29628   1_554     S
C58   O60    1.28389       .     S
O59   C58    1.29628   1_556     S
O59   Zn73   2.50237   1_556     S
O60   C58    1.28389       .     S
O60   Zn71   4.55089       .     S
O61   Zn50   2.50278       .     S
O61   C55    1.32803       .     S
O62   Zn51   4.53216   1_554     D
O62   C55    1.29863       .     S
C63   C66    1.42174       .     S
C63   O67    1.25946       .     T
C63   O70    1.25877   1_565     S
C64   C65    1.42174       .     T
C64   O68    1.25875       .     S
C64   O69    1.25937       .     D
C65   C64    1.42174       .     S
C65   C66    1.19795       .     D
C66   C63    1.42174       .     S
C66   C65    1.19795       .     S
O67   C63    1.25946       .     T
O67   Zn75   3.32796   1_664     S
O68   Zn53   2.42981       .     T
O68   C64    1.25875       .     S
O69   Zn52   3.60445       .     D
O69   C64    1.25937       .     S
O70   C63    1.25877   1_545     D
O70   Zn72   2.85558       .     S
Zn71  O60    4.55089       .     S
Zn71  O74    1.93631       .     A
Zn71  O82    2.30369       .     A
Zn71  O83    2.07551   1_545     S
Zn72  O48    3.09142       .     S
Zn72  O49    1.24105       .     A
Zn72  O70    2.85558       .     A
Zn72  O74    1.92595   1_655     A
Zn73  O32    6.72498   1_554     S
Zn73  O34    5.90974   1_554     S
Zn73  O59    2.50237   1_554     A
Zn73  O74    1.94090       .     D
O74   Zn71   1.93631       .     D
O74   Zn72   1.92595   1_455     S
O74   Zn73   1.94090       .     A
O74   Zn75   1.93599   1_554     A
Zn75  O67    3.32796   1_446     S
Zn75  O74    1.93599   1_556     S
Zn75  O119   1.61482   1_455     A
Zn75  O121   2.19673       .     A
C76   C78    1.44528       .     S
C76   C81    1.21153       .     A
C77   C79    1.44516       .     S
C77   O82    1.28427   1_565     A
C77   O83    1.28428       .     S
C78   C76    1.44528       .     D
C78   O84    1.26486       .     S
C78   O85    1.26485   1_554     A
C79   C77    1.44516       .     A
C79   C80    1.21165       .     D
C80   C79    1.21165       .     S
C80   C81    1.42177       .     A
C81   C76    1.21153       .     A
C81   C80    1.42177       .     S
O82   Zn71   2.30369       .     A
O82   C77    1.28427   1_545     S
O83   Zn71   2.07551   1_565     A
O83   C77    1.28428       .     S
O84   Zn51   2.21205   1_554     D
O84   C78    1.26486       .     S
O85   Zn51   2.17785       .     D
O85   C78    1.26485   1_556     S
H86   C96    1.08306       .     S
H87   C97    1.08315       .     A
H88   C104   1.08337   1_455     A
H89   C105   1.08325       .     S
H90   C108   1.08320   1_545     S
H91   C109   1.08336       .     A
H92   C110   1.08318       .     A
H93   C111   1.08346       .     A
C94   C107   1.47067       .     S
C94   O118   1.29216       .     S
C94   O120   1.29270       .     A
C95   C106   1.47062       .     D
C95   O119   1.29216   1_565     D
C95   O121   1.29270   1_665     S
C96   H86    1.08306       .     A
C96   C98    1.40049       .     A
C96   C106   1.40235       .     S
C97   H87    1.08315       .     S
C97   C99    1.40024       .     A
C97   C107   1.40253       .     A
C98   C96    1.40049       .     S
C98   C100   1.41582       .     A
C98   N114   1.44136       .     S
C99   C97    1.40024       .     A
C99   C101   1.41572       .     S
C99   N115   1.44082       .     D
C100  C98    1.41582       .     S
C100  C102   1.40893       .     A
C100  C113   1.46662       .     A
C101  C99    1.41572       .     D
C101  C103   1.40891       .     S
C101  C112   1.46697       .     A
C102  C100   1.40893       .     A
C102  C104   1.39227       .     S
C102  Cl116  1.76306   1_655     A
C103  C101   1.40891       .     S
C103  C105   1.39236       .     A
C103  Cl117  1.76319       .     S
C104  H88    1.08337   1_655     D
C104  C102   1.39227       .     S
C104  C106   1.40039       .     S
C105  H89    1.08325       .     S
C105  C103   1.39236       .     S
C105  C107   1.40070       .     S
C106  C95    1.47062       .     S
C106  C96    1.40235       .     S
C106  C104   1.40039       .     S
C107  C94    1.47067       .     S
C107  C97    1.40253       .     S
C107  C105   1.40070       .     S
C108  H90    1.08320   1_565     S
C108  C110   1.39268       .     S
C108  C113   1.40115       .     S
C109  H91    1.08336       .     S
C109  C111   1.39269       .     S
C109  C112   1.40122       .     S
C110  H92    1.08318       .     S
C110  C108   1.39268       .     S
C110  C112   1.40104       .     S
C111  H93    1.08346       .     S
C111  C109   1.39269       .     S
C111  C113   1.40111       .     S
C112  C101   1.46697       .     S
C112  C109   1.40122       .     S
C112  C110   1.40104       .     S
C113  C100   1.46662       .     S
C113  C108   1.40115       .     S
C113  C111   1.40111       .     S
N114  C98    1.44136       .     S
N114  O122   1.30142       .     S
N114  O123   1.30152       .     S
N115  C99    1.44082       .     S
N115  O124   1.30147       .     S
N115  O125   1.30156       .     S
Cl116 C102   1.76306   1_455     S
Cl117 C103   1.76319       .     S
O118  Zn52   1.85597       .     S
O118  C94    1.29216       .     S
O119  Zn75   1.61482   1_655     S
O119  C95    1.29216   1_545     S
O120  Zn52   1.91377       .     S
O120  C94    1.29270       .     S
O121  Zn75   2.19673       .     S
O121  C95    1.29270   1_445     S
O122  N114   1.30142       .     S
O123  N114   1.30152       .     S
O124  N115   1.30147       .     S
O125  N115   1.30156       .     S
