# generated using pymatgen
data_Zn2H10C32SI4N5O23
_symmetry_space_group_name_H-M   'P 1'
_cell_length_a   12.17014000
_cell_length_b   12.26981000
_cell_length_c   23.27867000
_cell_angle_alpha   96.48111000
_cell_angle_beta   92.92882000
_cell_angle_gamma   81.05649000
_symmetry_Int_Tables_number   1
_chemical_formula_structural   Zn2H10C32SI4N5O23
_chemical_formula_sum   'Zn4 H20 C64 S2 I8 N10 O46'
_cell_volume   3409.89382290
_cell_formula_units_Z   2
loop_
 _symmetry_equiv_pos_site_id
 _symmetry_equiv_pos_as_xyz
  1  'x, y, z'
loop_
 _atom_site_type_symbol
 _atom_site_label
 _atom_site_symmetry_multiplicity
 _atom_site_fract_x
 _atom_site_fract_y
 _atom_site_fract_z
 _atom_site_occupancy
  _atom_site_charge
  Zn  Zn0  1  0.91073730  0.21030171  0.85229206  1  3.592511
  Zn  Zn1  1  0.87116740  0.46196640  0.84782850  1  6.124291
  Zn  Zn2  1  0.90116630  0.46173180  0.36615738  1  6.740705
  Zn  Zn3  1  0.89119020  0.21346115  0.33612788  1  4.413063
  H  H4  1  0.75278330  0.73921466  0.79675436  1  0.107065
  H  H5  1  0.71648310  0.91527340  0.82278270  1  0.081596
  H  H6  1  0.92079854  0.92312866  0.94219520  1  0.061244
  H  H7  1  0.91861933  0.74151945  0.93523645  1  0.086162
  H  H8  1  0.05255485  0.08673835  0.74071900  1  0.132168
  H  H9  1  0.24755013  0.71893770  0.74648640  1  0.181327
  H  H10  1  0.11433363  0.07530296  0.94962126  1  0.137455
  H  H11  1  0.15219557  0.76212240  0.97631040  1  0.177325
  H  H12  1  0.78762820  0.08791614  0.70273950  1  0.155283
  H  H13  1  0.89745796  0.73763174  0.64854100  1  0.185130
  H  H14  1  0.49518916  0.67089370  0.28654942  1  0.156139
  H  H15  1  0.30301106  0.98985785  0.39540464  1  0.161794
  H  H16  1  0.28182587  0.51193650  0.82187545  1  0.074164
  H  H17  1  0.43519813  0.52281624  0.87282860  1  0.155895
  H  H18  1  0.34153613  0.16842173  0.85514560  1  0.037221
  H  H19  1  0.50083697  0.16893461  0.82604957  1  0.145723
  H  H20  1  0.28645158  0.51122630  0.32892972  1  0.054684
  H  H21  1  0.44047695  0.51876515  0.37974498  1  0.150213
  H  H22  1  0.34682780  0.16419640  0.35533303  1  0.072358
  H  H23  1  0.50565934  0.16710868  0.32626215  1  0.141375
  C  C24  1  0.82235396  0.49952137  0.71853346  1  0.295849
  C  C25  1  0.96143420  0.17225250  0.48466763  1  0.174058
  C  C26  1  0.85208930  0.42957428  0.66855770  1  -0.064161
  C  C27  1  0.93164295  0.24248098  0.53454790  1  -0.011251
  C  C28  1  0.87726110  0.37044016  0.62615810  1  0.063086
  C  C29  1  0.90647470  0.30177330  0.57689230  1  0.014879
  C  C30  1  0.90057003  0.28788772  0.23846008  1  0.678838
  C  C31  1  0.87897605  0.38092378  0.96229976  1  0.207779
  C  C32  1  0.89641350  0.30911222  0.17950736  1  -0.195582
  C  C33  1  0.89288354  0.32702407  0.12986049  1  0.180984
  C  C34  1  0.88821125  0.34622510  0.07159888  1  -0.079162
  C  C35  1  0.88400050  0.36198620  0.02160869  1  0.105917
  C  C36  1  0.79919714  0.90301260  0.80328750  1  -0.023199
  C  C37  1  0.83106786  0.77232650  0.79152380  1  -0.137759
  C  C38  1  0.85405870  0.90497800  0.91010964  1  0.021094
  C  C39  1  0.86217670  0.77459675  0.90019320  1  -0.031170
  C  C40  1  0.87846893  0.95352960  0.85246390  1  0.015487
  C  C41  1  0.91604704  0.72734696  0.84022146  1  0.189680
  C  C42  1  0.03250861  0.77453417  0.83874834  1  -0.068637
  C  C43  1  0.00689685  0.91049075  0.83798456  1  -0.009121
  C  C44  1  0.93185230  0.60171497  0.83640780  1  -0.353847
  C  C45  1  0.85472630  0.07930541  0.86009496  1  -0.047681
  C  C46  1  0.02770543  0.95470000  0.78042380  1  0.155713
  C  C47  1  0.10517526  0.72126270  0.78796620  1  0.332932
  C  C48  1  0.08846164  0.96660197  0.88011170  1  0.124099
  C  C49  1  0.10445964  0.73503137  0.89202220  1  0.303360
  C  C50  1  0.76829940  0.96430910  0.74990360  1  0.113278
  C  C51  1  0.85796030  0.72105724  0.72995340  1  0.337367
  C  C52  1  0.75286300  0.79870415  0.35183313  1  0.032320
  C  C53  1  0.01402366  0.88602936  0.39407685  1  0.020506
  C  C54  1  0.77844670  0.68121860  0.34261048  1  0.101570
  C  C55  1  0.00101650  0.99530816  0.37910860  1  0.136846
  C  C56  1  0.96875155  0.69494730  0.36465284  1  0.049709
  C  C57  1  0.81733210  0.97966310  0.34437734  1  0.079878
  C  C58  1  0.94188130  0.81393594  0.36964038  1  0.007716
  C  C59  1  0.83693730  0.86398935  0.35298940  1  0.006035
  C  C60  1  0.97710925  0.33156717  0.83585310  1  3.802666
  C  C61  1  0.80391620  0.35246506  0.86208070  1  3.735346
  C  C62  1  0.25292632  0.43620038  0.82980883  1  -0.016444
  C  C63  1  0.49128190  0.44607273  0.86349285  1  -0.365765
  C  C64  1  0.13834351  0.43331290  0.82559770  1  0.081758
  C  C65  1  0.60535170  0.44995886  0.86868440  1  0.656524
  C  C66  1  0.09776255  0.33305743  0.83193040  1  0.207495
  C  C67  1  0.68256100  0.35000432  0.86120164  1  -1.383350
  C  C68  1  0.17567280  0.23546544  0.83629080  1  -0.131843
  C  C69  1  0.64034885  0.24788970  0.85018270  1  0.622713
  C  C70  1  0.28754740  0.24300980  0.84566300  1  0.036734
  C  C71  1  0.52718914  0.24794768  0.83987680  1  -0.361640
  C  C72  1  0.32872558  0.34230807  0.84179074  1  -0.076296
  C  C73  1  0.45051550  0.34583226  0.84783030  1  0.280104
  C  C74  1  0.98216087  0.32862642  0.33956861  1  5.568338
  C  C75  1  0.80901545  0.34927562  0.36546420  1  3.988361
  C  C76  1  0.25772300  0.43459250  0.33537772  1  -0.029829
  C  C77  1  0.49645752  0.44252524  0.36892040  1  -0.343563
  C  C78  1  0.14312540  0.43178102  0.33121550  1  0.051623
  C  C79  1  0.61055540  0.44626728  0.37407842  1  0.640866
  C  C80  1  0.10271313  0.33063310  0.33560294  1  0.098745
  C  C81  1  0.68769455  0.34663957  0.36463204  1  -1.461723
  C  C82  1  0.18071808  0.23252462  0.33799037  1  0.092386
  C  C83  1  0.64540845  0.24487261  0.35171285  1  0.626883
  C  C84  1  0.29267810  0.23963274  0.34738243  1  -0.022738
  C  C85  1  0.53214580  0.24545892  0.34153995  1  -0.352719
  C  C86  1  0.33372277  0.33964393  0.34542513  1  -0.047309
  C  C87  1  0.45555007  0.34297636  0.35141440  1  0.265920
  S  S88  1  0.12946928  0.04384780  0.37414780  1  0.582119
  S  S89  1  0.65651440  0.61742604  0.32610330  1  -0.003813
  I  I90  1  0.67267215  0.03242838  0.29313603  1  0.014303
  I  I91  1  0.14066482  0.63234380  0.37516606  1  0.192756
  I  I92  1  0.60644263  0.87203825  0.39919700  1  -0.025436
  I  I93  1  0.07934916  0.86555170  0.48009354  1  -0.045391
  I  I94  1  0.14378862  0.06830199  0.82085950  1  -0.168774
  I  I95  1  0.73206997  0.08493557  0.85307870  1  -0.024869
  I  I96  1  0.14873558  0.06581299  0.31940868  1  -0.169459
  I  I97  1  0.73724055  0.08129928  0.35136345  1  -0.227625
  N  N98  1  0.94440230  0.50483430  0.83349764  1  0.506670
  N  N99  1  0.83808620  0.17627478  0.86566850  1  -0.172870
  N  N100  1  0.75020057  0.95740350  0.93813545  1  -0.035210
  N  N101  1  0.75619626  0.73396830  0.90774230  1  -0.000144
  N  N102  1  0.89969176  0.04631495  0.35714220  1  -0.095680
  N  N103  1  0.88860430  0.62659943  0.34782630  1  -0.199266
  N  N104  1  0.06580459  0.53058540  0.81048040  1  -0.009821
  N  N105  1  0.63972300  0.55661920  0.88280970  1  -0.098912
  N  N106  1  0.07033850  0.53035390  0.31811038  1  0.003356
  N  N107  1  0.64504450  0.55235770  0.39018372  1  0.206005
  O  O108  1  0.72219440  0.51527584  0.73364870  1  -0.217128
  O  O109  1  0.06161463  0.15638070  0.46959823  1  -0.057622
  O  O110  1  0.88786760  0.12517907  0.45565510  1  -0.123649
  O  O111  1  0.89594140  0.54647750  0.74759185  1  -0.115088
  O  O112  1  0.85921204  0.48428392  0.95009890  1  0.154256
  O  O113  1  0.89455990  0.29409555  0.92333290  1  -0.087971
  O  O114  1  0.99106014  0.28930387  0.26791793  1  -0.675103
  O  O115  1  0.81152606  0.28156860  0.26345350  1  -0.309665
  O  O116  1  0.67356926  0.02258635  0.91222450  1  -0.090334
  O  O117  1  0.73471820  0.93864423  0.99082640  1  -0.076515
  O  O118  1  0.66214705  0.77893610  0.88533896  1  -0.069879
  O  O119  1  0.75499730  0.65567290  0.94096094  1  -0.032447
  O  O120  1  0.03063190  0.89663120  0.73427063  1  -0.127524
  O  O121  1  0.04090571  0.06629229  0.78072274  1  -0.105723
  O  O122  1  0.07852304  0.64550490  0.75423497  1  -0.190374
  O  O123  1  0.20746290  0.75702630  0.78210630  1  -0.281321
  O  O124  1  0.18860877  0.94400330  0.87239350  1  -0.152962
  O  O125  1  0.05119109  0.04490864  0.92616870  1  -0.470129
  O  O126  1  0.15818810  0.64143900  0.88876367  1  -0.199601
  O  O127  1  0.10368300  0.80014260  0.94546790  1  -0.296486
  O  O128  1  0.69370380  0.93642956  0.71687790  1  -0.122829
  O  O129  1  0.81818620  0.05492389  0.73935710  1  -0.143754
  O  O130  1  0.85421650  0.62211520  0.71726050  1  -0.224980
  O  O131  1  0.88255113  0.78365296  0.68711483  1  -0.268394
  O  O132  1  0.15058494  0.05120826  0.31174390  1  -0.027972
  O  O133  1  0.12820172  0.15442812  0.40852514  1  -1.181268
  O  O134  1  0.23577821  0.95546246  0.39955470  1  -0.202192
  O  O135  1  0.67532450  0.50733520  0.29123130  1  -0.037704
  O  O136  1  0.60323830  0.60568130  0.38151643  1  -0.726222
  O  O137  1  0.56610570  0.70135283  0.28750190  1  -0.211432
  O  O138  1  0.90983010  0.42450240  0.84662060  1  -6.868756
  O  O139  1  0.84045790  0.44741866  0.86938983  1  -3.683911
  O  O140  1  0.94106610  0.23689260  0.83057547  1  -2.404737
  O  O141  1  0.87171900  0.25980946  0.85334533  1  -3.508444
  O  O142  1  0.99732210  0.52357770  0.76586910  1  -0.226157
  O  O143  1  0.08213731  0.62820860  0.83424580  1  -0.117080
  O  O144  1  0.68403420  0.58143720  0.93370867  1  -0.002483
  O  O145  1  0.60365890  0.63597953  0.85081670  1  -0.071132
  O  O146  1  0.91499880  0.42099184  0.35214100  1  -9.152315
  O  O147  1  0.84558550  0.44411236  0.37455583  1  -2.112855
  O  O148  1  0.94611750  0.23392433  0.33250420  1  -3.104849
  O  O149  1  0.87672925  0.25704548  0.35491964  1  -4.612236
  O  O150  1  0.00125802  0.52640490  0.27361965  1  -0.056999
  O  O151  1  0.08693726  0.62664610  0.34364940  1  -0.215687
  O  O152  1  0.69003970  0.57368200  0.44129694  1  -0.115570
  O  O153  1  0.60849270  0.63423880  0.35990572  1  0.481748
