# generated using pymatgen
data_CuH5C14N5O13
_symmetry_space_group_name_H-M   'P 1'
_cell_length_a   9.21252000
_cell_length_b   13.98281000
_cell_length_c   15.14625000
_cell_angle_alpha   89.11427000
_cell_angle_beta   90.38044000
_cell_angle_gamma   86.78893000
_symmetry_Int_Tables_number   1
_chemical_formula_structural   CuH5C14N5O13
_chemical_formula_sum   'Cu2 H10 C28 N10 O26'
_cell_volume   1947.74211616
_cell_formula_units_Z   2
loop_
 _symmetry_equiv_pos_site_id
 _symmetry_equiv_pos_as_xyz
  1  'x, y, z'
loop_
 _atom_site_type_symbol
 _atom_site_label
 _atom_site_symmetry_multiplicity
 _atom_site_fract_x
 _atom_site_fract_y
 _atom_site_fract_z
 _atom_site_occupancy
  _atom_site_charge
  Cu  Cu0  1  0.62186325  0.33927172  0.00834501  1  0.879423
  Cu  Cu1  1  0.61470220  0.15875150  0.95018846  1  0.929278
  H  H2  1  0.47664458  0.37000150  0.91756160  1  0.189854
  H  H3  1  0.76193410  0.12880874  0.04492068  1  0.174860
  H  H4  1  0.54880095  0.67554320  0.84450280  1  0.178694
  H  H5  1  0.68905157  0.82336570  0.11792314  1  0.173471
  H  H6  1  0.28500440  0.91389860  0.84353846  1  0.182212
  H  H7  1  0.95466596  0.58446926  0.11815643  1  0.187892
  H  H8  1  0.52356690  0.09977496  0.42271444  1  0.090061
  H  H9  1  0.48299468  0.39381840  0.52196366  1  0.091279
  H  H10  1  0.66681850  0.10620224  0.55306566  1  0.093036
  H  H11  1  0.67966485  0.38258466  0.42557648  1  0.090764
  C  C12  1  0.90656900  0.23439573  0.98016400  1  0.315192
  C  C13  1  0.33427110  0.26731375  0.98129445  1  0.355947
  C  C14  1  0.05685022  0.24598797  0.98036580  1  0.092212
  C  C15  1  0.18401287  0.25570530  0.98071060  1  -0.044493
  C  C16  1  0.63977190  0.02591050  0.02467251  1  0.077214
  C  C17  1  0.59810110  0.47321305  0.93779750  1  0.143567
  C  C18  1  0.64273340  0.92554516  0.03266990  1  0.098449
  C  C19  1  0.59541860  0.57355213  0.92986286  1  0.090636
  C  C20  1  0.55370890  0.87296194  0.97740537  1  0.034792
  C  C21  1  0.68539596  0.62597346  0.98466180  1  0.062966
  C  C22  1  0.45261806  0.92405750  0.92239040  1  0.103810
  C  C23  1  0.78726590  0.57468617  0.03901505  1  0.080862
  C  C24  1  0.44745424  0.02650988  0.91939810  1  0.139681
  C  C25  1  0.79234120  0.47219297  0.04173803  1  0.106026
  C  C26  1  0.68207760  0.22820964  0.15620430  1  0.298738
  C  C27  1  0.56485080  0.27490390  0.80685800  1  0.318702
  C  C28  1  0.56887360  0.15958380  0.38818708  1  -0.100437
  C  C29  1  0.52007014  0.33403680  0.56430300  1  -0.101747
  C  C30  1  0.62040570  0.17149127  0.58165420  1  -0.098423
  C  C31  1  0.65355180  0.31927255  0.38962610  1  -0.099048
  C  C32  1  0.60382950  0.15102290  0.29953322  1  0.150417
  C  C33  1  0.53001300  0.34750175  0.65448093  1  0.156828
  C  C34  1  0.62565947  0.18166424  0.67246080  1  0.154162
  C  C35  1  0.68461347  0.31547016  0.30054972  1  0.144100
  C  C36  1  0.65747930  0.23136757  0.25251600  1  -0.120485
  C  C37  1  0.57757930  0.26969907  0.71041936  1  -0.125207
  C  C38  1  0.59288967  0.24301100  0.43295220  1  0.057692
  C  C39  1  0.56976885  0.24777678  0.52758530  1  0.059858
  N  N40  1  0.54135710  0.07672763  0.96988326  1  -0.295240
  N  N41  1  0.69720680  0.42219305  0.99198140  1  -0.247452
  N  N42  1  0.55733990  0.76985294  0.97801250  1  -0.043120
  N  N43  1  0.68185460  0.72910196  0.98422873  1  -0.045875
  N  N44  1  0.34538114  0.07680237  0.86153280  1  -0.022303
  N  N45  1  0.89641090  0.42157227  0.09807765  1  -0.023881
  N  N46  1  0.58652997  0.05890520  0.26141230  1  -0.030864
  N  N47  1  0.50373816  0.44269720  0.68549144  1  -0.023396
  N  N48  1  0.69810104  0.10657660  0.72392070  1  -0.029895
  N  N49  1  0.74870490  0.39729998  0.26260015  1  -0.016378
  O  O50  1  0.86096700  0.15128015  0.99610540  1  -0.331681
  O  O51  1  0.37983610  0.35053945  0.96595270  1  -0.342034
  O  O52  1  0.81992490  0.30727893  0.96410470  1  -0.359302
  O  O53  1  0.42087820  0.19454066  0.99795336  1  -0.349689
  O  O54  1  0.50021360  0.42875054  0.88626385  1  -0.195590
  O  O55  1  0.73688440  0.07061231  0.07667232  1  -0.191020
  O  O56  1  0.50433207  0.61698400  0.86654794  1  -0.206052
  O  O57  1  0.73312910  0.88228464  0.09639895  1  -0.220672
  O  O58  1  0.36055288  0.87115970  0.87261400  1  -0.234387
  O  O59  1  0.88017990  0.62739970  0.08838558  1  -0.240190
  O  O60  1  0.36521060  0.07312298  0.77662265  1  -0.077695
  O  O61  1  0.21858913  0.10591531  0.89107950  1  -0.072270
  O  O62  1  0.87781500  0.42309460  0.18315518  1  -0.050420
  O  O63  1  0.02379775  0.39560910  0.06736851  1  -0.113031
  O  O64  1  0.66070190  0.14900124  0.11535600  1  -0.248421
  O  O65  1  0.58741120  0.35434875  0.84734184  1  -0.249184
  O  O66  1  0.53073390  0.19790557  0.84908307  1  -0.381371
  O  O67  1  0.71737915  0.30544440  0.11361473  1  -0.362597
  O  O68  1  0.48450676  0.04835260  0.20319021  1  -0.069726
  O  O69  1  0.63671850  0.98327000  0.30528780  1  -0.069857
  O  O70  1  0.61357427  0.48867470  0.71352280  1  -0.058399
  O  O71  1  0.38650793  0.49181410  0.65957030  1  -0.067147
  O  O72  1  0.81431760  0.12542956  0.76791110  1  -0.100579
  O  O73  1  0.67278380  0.01768185  0.70870360  1  -0.080607
  O  O74  1  0.86689540  0.42658684  0.29830850  1  -0.070475
  O  O75  1  0.66769590  0.45823756  0.21588598  1  -0.092035
