data_I
_chemical_name_common  'pretrained/mofdiff_ckpt/samples_1_seed_123/cif/sample_0'
_cell_length_a 10.54506
_cell_length_b 11.38456
_cell_length_c 14.38476
_cell_angle_alpha 90.96593
_cell_angle_beta  105.73026
_cell_angle_gamma 105.90091
_space_group_name_H-M_alt      'P 1'


loop_
_space_group_symop_operation_xyz
  'x, y, z' 

loop_
_atom_site_label
_atom_site_fract_x
_atom_site_fract_y
_atom_site_fract_z
_atom_site_type_symbol
Zn0   0.59994334 0.96919644 0.101958364    Zn
Zn1   0.2947394 0.9333986 0.00122623    Zn
H2    0.6483476 0.009733677 0.5906529     H
H3    0.7097765 0.88290745 0.31450865     H
H4    0.0033166409 0.81821233 0.18144384     H
H5    0.24294496 0.88351494 0.51296777     H
H6     0.73318 0.086102605 0.7581457     H
H7    0.9143376 0.13819027 0.9103817     H
H8    0.17113435 0.98895025 0.79185426     H
H9    0.68036336 0.9421936 0.44367355     H
H10   0.20176816 0.9304542 0.6622794     H
H11   0.17363644 0.8439571 0.33912674     H
C12   0.73996884 0.81490076 0.14042336     C
C13   0.048380375 0.052305937 0.86565506     C
C14   0.8447922 0.8487054 0.23778571     C
C15   0.82693493 0.061520338 0.76343465     C
C16   0.9300854 0.09037554 0.85099554     C
C17   0.07208812 0.0028588772 0.78248006     C
C18   0.9720756 0.9819907 0.6881909     C
C19   0.84659714 0.008399725 0.68223387     C
C20   0.9936626 0.9430266 0.5988487     C
C21   0.8884939 0.92928195 0.5072943     C
C22   0.7637475 0.95065343 0.50857747     C
C23   0.74384785 0.9893477 0.59410405     C
C24   0.11904955 0.92322063 0.59717757     C
C25   0.14378095 0.89600486 0.5103025     C
C26   0.04352188 0.88326335 0.42125624     C
C27   0.91278803 0.89737195 0.41731116     C
C28   0.0735445 0.8542926 0.33603373     C
C29   0.9758395 0.8376745 0.24595883     C
C30   0.81297475 0.8781418 0.32340026     C
C31   0.15281606 0.08602524 0.9647418     C
O32   0.69080776 0.69829214 0.113696195     O
O33   0.7153094 0.8998573 0.08305059     O
O34   0.20067036 0.20277011 0.99272025     O
O35   0.17599833 0.0011259317 0.023161769     O
H36   0.7982335 0.8591152 0.12431398     H
H37   0.1197474 0.062040806 0.017326137     H
H38   0.8349876 0.14140749 0.9882462     H
H39   0.8753011 0.7094619 0.01698427     H
C40   0.9890974 0.9079572 0.03917637     C
C41   0.875341 0.96414477 0.030748714     C
C42   0.8664362 0.06472063 0.9676553     C
C43   0.9651648 0.77901495 0.06145406     C
N44   0.10524237 0.9703871 0.027020188     N
N45   0.78606486 0.9262656 0.07844735     N
O46   0.89601356 0.063050866 0.89134127     O
O47   0.038131 0.75112224 0.13376379     O
H48   0.5786876 0.4061124 0.0973241     H
H49   0.31762105 0.49940932 0.00977477     H
H50   0.27936932 0.27046907 0.98412776     H
H51   0.61593115 0.63488543 0.12534727     H
C52   0.46435204 0.741677 0.078602724     C
C53   0.4307047 0.16337481 0.030629802     C
C54   0.50939333 0.6254537 0.086211465     C
C55   0.38615128 0.27988455 0.022591265     C
C56   0.4245697 0.5102332 0.048592903     C
C57   0.47152746 0.39525187 0.059077263     C
O58   0.32741562 0.72264254 0.033428885     O
O59   0.5667186 0.18186288 0.07760962     O
O60   0.5606737 0.84774417 0.13053127     O
O61   0.3334606 0.05676123 0.9805072     O
loop_
_geom_bond_atom_site_label_1
_geom_bond_atom_site_label_2
_geom_bond_distance
_geom_bond_site_symmetry_2
_ccdc_geom_bond_type
Zn0   Zn1    3.05885       .     S
Zn0   O32    3.46519       .     S
Zn0   O33    1.69572       .     S
Zn0   N45    2.25505       .     S
Zn0   O59    2.55618   1_565     S
Zn0   O60    1.43176       .     A
Zn1   Zn0    3.05885       .     A
Zn1   O34    3.46658   1_564     A
Zn1   O35    1.73117   1_565     A
Zn1   N44    2.27285       .     S
Zn1   O58    2.54837       .     A
Zn1   O61    1.41204   1_564     A
H2    C23    1.08251   1_545     A
H3    C30    1.07734       .     S
H4    C29    1.08090   1_455     S
H5    C25    1.08401       .     A
H6    C15    1.08309       .     D
H7    C16    1.07908       .     A
H8    C17    1.07196   1_565     A
H9    C22    1.07682       .     A
H10   C24    1.07692       .     A
H11   C28    1.08288       .     A
C12   C14    1.49692       .     A
C12   O32    1.29481       .     S
C12   O33    1.31626       .     S
C13   C16    1.39466   1_455     D
C13   C17    1.42390       .     S
C13   C31    1.51346       .     S
C14   C12    1.49692       .     A
C14   C29    1.39526       .     A
C14   C30    1.41892       .     A
C15   H6     1.08309       .     S
C15   C16    1.38741       .     A
C15   C19    1.39616       .     A
C16   H7     1.07908       .     A
C16   C13    1.39466   1_655     S
C16   C15    1.38741       .     A
C17   H8     1.07196   1_545     S
C17   C13    1.42390       .     S
C17   C18    1.44380   1_445     S
C18   C17    1.44380   1_665     S
C18   C19    1.41630   1_565     S
C18   C20    1.44740       .     A
C19   C15    1.39616       .     A
C19   C18    1.41630   1_545     A
C19   C23    1.39475   1_545     A
C20   C18    1.44740       .     S
C20   C21    1.44737       .     A
C20   C24    1.40715   1_655     A
C21   C20    1.44737       .     A
C21   C22    1.40654       .     S
C21   C27    1.44498       .     S
C22   H9     1.07682       .     A
C22   C21    1.40654       .     D
C22   C23    1.38710       .     A
C23   H2     1.08251   1_565     A
C23   C19    1.39475   1_565     A
C23   C22    1.38710       .     A
C24   H10    1.07692       .     A
C24   C20    1.40715   1_455     A
C24   C25    1.39055       .     S
C25   H5     1.08401       .     S
C25   C24    1.39055       .     D
C25   C26    1.39819       .     S
C26   C25    1.39819       .     S
C26   C27    1.41731   1_455     A
C26   C28    1.40210       .     A
C27   C21    1.44498       .     A
C27   C26    1.41731   1_655     S
C27   C30    1.43995       .     A
C28   H11    1.08288       .     A
C28   C26    1.40210       .     A
C28   C29    1.39185   1_455     S
C29   H4     1.08090   1_655     A
C29   C14    1.39526       .     S
C29   C28    1.39185   1_655     S
C30   H3     1.07734       .     S
C30   C14    1.41892       .     D
C30   C27    1.43995       .     D
C31   C13    1.51346       .     S
C31   O34    1.29901       .     S
C31   O35    1.32122   1_556     S
O32   Zn0    3.46519       .     S
O32   C12    1.29481       .     D
O33   Zn0    1.69572       .     S
O33   C12    1.31626       .     S
O34   Zn1    3.46658   1_546     D
O34   C31    1.29901       .     S
O35   Zn1    1.73117   1_545     D
O35   C31    1.32122   1_554     D
H36   N45    1.03008       .     S
H37   N44    1.02986   1_545     S
H38   C42    1.07847       .     S
H39   C43    1.08502       .     S
C40   C41    1.48562       .     D
C40   C43    1.47580       .     S
C40   N44    1.29580   1_655     S
C41   C40    1.48562       .     D
C41   C42    1.48031   1_564     D
C41   N45    1.29645       .     S
C42   H38    1.07847       .     S
C42   C41    1.48031   1_546     S
C42   O46    1.22103       .     D
C43   H39    1.08502       .     S
C43   C40    1.47580       .     S
C43   O47    1.21896   1_655     S
N44   Zn1    2.27285       .     D
N44   H37    1.02986   1_565     S
N44   C40    1.29580   1_455     S
N45   Zn0    2.25505       .     D
N45   H36    1.03008       .     S
N45   C41    1.29645       .     D
O46   C42    1.22103       .     S
O47   C43    1.21896   1_455     S
H48   C57    1.08580       .     S
H49   C56    1.08579       .     D
H50   C55    1.08609   1_556     S
H51   C54    1.08606       .     S
C52   C54    1.51965       .     S
C52   O58    1.36725       .     D
C52   O60    1.39065       .     S
C53   C55    1.52008       .     S
C53   O59    1.36469       .     D
C53   O61    1.39003   1_554     S
C54   H51    1.08606       .     S
C54   C52    1.51965       .     S
C54   C56    1.37268       .     S
C55   H50    1.08609   1_554     S
C55   C53    1.52008       .     S
C55   C57    1.37246       .     S
C56   H49    1.08579       .     S
C56   C54    1.37268       .     S
C56   C57    1.51749       .     S
C57   H48    1.08580       .     S
C57   C55    1.37246       .     S
C57   C56    1.51749       .     S
O58   Zn1    2.54837       .     S
O58   C52    1.36725       .     S
O59   Zn0    2.55618   1_545     S
O59   C53    1.36469       .     S
O60   Zn0    1.43176       .     S
O60   C52    1.39065       .     S
O61   Zn1    1.41204   1_546     S
O61   C53    1.39003   1_556     S
