# generated using pymatgen
data_ZnH28C24NO7
_symmetry_space_group_name_H-M   'P 1'
_cell_length_a   12.97462000
_cell_length_b   18.68157000
_cell_length_c   19.08980000
_cell_angle_alpha   86.36974000
_cell_angle_beta   81.25774000
_cell_angle_gamma   76.04036000
_symmetry_Int_Tables_number   1
_chemical_formula_structural   ZnH28C24NO7
_chemical_formula_sum   'Zn2 H56 C48 N2 O14'
_cell_volume   4436.56464690
_cell_formula_units_Z   2
loop_
 _symmetry_equiv_pos_site_id
 _symmetry_equiv_pos_as_xyz
  1  'x, y, z'
loop_
 _atom_site_type_symbol
 _atom_site_label
 _atom_site_symmetry_multiplicity
 _atom_site_fract_x
 _atom_site_fract_y
 _atom_site_fract_z
 _atom_site_occupancy
  _atom_site_charge
  Zn  Zn0  1  0.44399214  0.57146150  0.08508190  1  1.127662
  Zn  Zn1  1  0.68625830  0.52462494  0.04917182  1  1.197590
  H  H2  1  0.50895506  0.78438540  0.92999460  1  0.041145
  H  H3  1  0.40559053  0.86885047  0.92654030  1  0.050356
  H  H4  1  0.36694655  0.71189950  0.94266040  1  0.010855
  H  H5  1  0.26610470  0.79649560  0.93767416  1  0.065232
  H  H6  1  0.35369130  0.82378030  0.81612950  1  0.057030
  H  H7  1  0.31924343  0.73540616  0.82105400  1  0.050592
  H  H8  1  0.45666390  0.73946905  0.82106316  1  0.048439
  H  H9  1  0.82150203  0.27265602  0.05822658  1  0.026757
  H  H10  1  0.81960106  0.20136756  0.12661560  1  0.033772
  H  H11  1  0.83814216  0.35834990  0.15163511  1  0.059215
  H  H12  1  0.84315840  0.28330340  0.21573527  1  0.057367
  H  H13  1  0.00845313  0.21037354  0.14489914  1  0.005266
  H  H14  1  0.02642155  0.29909970  0.16580005  1  0.017095
  H  H15  1  0.00292373  0.28364944  0.07786346  1  0.034871
  H  H16  1  0.73876940  0.78791934  0.17550105  1  0.144962
  H  H17  1  0.42192698  0.30525506  0.93232733  1  0.184639
  H  H18  1  0.68449270  0.90672980  0.13659510  1  0.062419
  H  H19  1  0.46472200  0.18781386  0.97710660  1  0.033905
  H  H20  1  0.29295045  0.05005656  0.07005867  1  0.016162
  H  H21  1  0.31694200  0.96793914  0.12481994  1  0.019390
  H  H22  1  0.19430596  0.99109650  0.99530270  1  0.105241
  H  H23  1  0.21765576  0.90887743  0.05092011  1  0.062555
  H  H24  1  0.11638489  0.98169840  0.15612818  1  0.023956
  H  H25  1  0.03586439  0.98711910  0.08591447  1  0.020004
  H  H26  1  0.09151880  0.06392366  0.09973855  1  0.038348
  H  H27  1  0.61712426  0.08801050  0.24638535  1  0.025194
  H  H28  1  0.50854690  0.14459382  0.20680967  1  0.022457
  H  H29  1  0.67001020  0.20172144  0.28004792  1  0.051326
  H  H30  1  0.55475134  0.25796680  0.24480465  1  0.054799
  H  H31  1  0.43326410  0.19826524  0.33055758  1  0.050642
  H  H32  1  0.51525486  0.24115297  0.37479082  1  0.048510
  H  H33  1  0.54861810  0.14219199  0.36689570  1  0.050709
  H  H34  1  0.69863224  0.67133975  0.15111002  1  0.043902
  H  H35  1  0.80982494  0.72480214  0.21687232  1  -0.003231
  H  H36  1  0.78091025  0.57790820  0.06395682  1  -0.170060
  H  H37  1  0.00237261  0.69106160  0.19193100  1  0.030933
  H  H38  1  0.15252975  0.50319016  0.85081184  1  0.016785
  H  H39  1  0.03231211  0.52694815  0.91096920  1  0.025886
  H  H40  1  0.99494740  0.50792426  0.79183334  1  0.005646
  H  H41  1  0.07138330  0.41348880  0.79585075  1  0.049361
  H  H42  1  0.95010257  0.44339082  0.85711370  1  0.009224
  H  H43  1  0.28659838  0.44739926  0.22482462  1  0.007426
  H  H44  1  0.18331735  0.52366936  0.20540991  1  0.007942
  H  H45  1  0.27349640  0.55002314  0.30179894  1  0.063987
  H  H46  1  0.40028800  0.53267515  0.24369916  1  0.022318
  H  H47  1  0.29286300  0.61014030  0.22536395  1  0.037071
  H  H48  1  0.44630808  0.50785625  0.00053709  1  -0.220340
  H  H49  1  0.54527360  0.43404508  0.95786290  1  -0.068451
  H  H50  1  0.64192975  0.40821412  0.05772375  1  0.073926
  H  H51  1  0.60825000  0.50659830  0.04467250  1  -0.464800
  H  H52  1  0.53293440  0.46403435  0.11550626  1  -0.050515
  H  H53  1  0.18565364  0.29779604  0.97349125  1  0.038308
  H  H54  1  0.30010024  0.24586804  0.00944774  1  0.024473
  H  H55  1  0.38916093  0.21167126  0.88415325  1  0.071640
  H  H56  1  0.26591638  0.18184500  0.91022790  1  0.077758
  H  H57  1  0.26707697  0.26207367  0.85239060  1  0.080672
  C  C58  1  0.47442025  0.91313654  0.04829209  1  0.055252
  C  C59  1  0.61779260  0.18969943  0.10583136  1  0.055293
  C  C60  1  0.47811526  0.83637846  0.05061076  1  0.126092
  C  C61  1  0.62887585  0.26372772  0.09475365  1  0.125727
  C  C62  1  0.62291250  0.81209606  0.11808518  1  0.200228
  C  C63  1  0.51497287  0.28389013  0.00545711  1  -0.022052
  C  C64  1  0.62572354  0.88777520  0.11257820  1  -0.132802
  C  C65  1  0.50986700  0.20864695  0.01112975  1  -0.022607
  C  C66  1  0.55168754  0.93893410  0.07727700  1  0.005706
  C  C67  1  0.56157150  0.16082376  0.06125595  1  -0.023142
  C  C68  1  0.55435425  0.01742879  0.07176361  1  -0.043553
  C  C69  1  0.55703750  0.08262980  0.06686446  1  0.002949
  C  C70  1  0.42347798  0.81136270  0.94855213  1  -0.084205
  C  C71  1  0.35162400  0.76928115  0.92035854  1  -0.030502
  C  C72  1  0.37183738  0.76696783  0.83959800  1  -0.155224
  C  C73  1  0.79800770  0.26188537  0.11579323  1  0.057988
  C  C74  1  0.86191890  0.29741892  0.15850988  1  -0.109676
  C  C75  1  0.98240286  0.27085700  0.13516590  1  -0.006332
  C  C76  1  0.30621088  0.98904790  0.06957423  1  0.091271
  C  C77  1  0.20636421  0.96975756  0.04987178  1  -0.057045
  C  C78  1  0.10648207  0.00278234  0.10126265  1  -0.060705
  C  C79  1  0.59080730  0.14219801  0.21904765  1  0.042971
  C  C80  1  0.58741665  0.20352773  0.26961480  1  -0.070918
  C  C81  1  0.51663670  0.19554687  0.33979710  1  -0.137840
  C  C82  1  0.99968330  0.50729260  0.04238161  1  -0.073550
  C  C83  1  0.11825539  0.59067950  0.09971701  1  -0.100979
  C  C84  1  0.83290100  0.59816870  0.09264390  1  0.023696
  C  C85  1  0.95656276  0.66559327  0.16224234  1  0.058070
  C  C86  1  0.78437170  0.65381646  0.14045738  1  -0.077217
  C  C87  1  0.84630210  0.68495400  0.17712347  1  0.132612
  C  C88  1  0.00694175  0.61072850  0.11329753  1  0.008516
  C  C89  1  0.94559340  0.57138216  0.08218756  1  0.010852
  C  C90  1  0.16825184  0.52081780  0.07132553  1  0.012682
  C  C91  1  0.11281003  0.49071664  0.02805004  1  -0.032350
  C  C92  1  0.27335012  0.48177070  0.08206820  1  0.085984
  C  C93  1  0.17190032  0.43836373  0.97735680  1  0.182628
  C  C94  1  0.32960472  0.42596298  0.03517698  1  0.008942
  C  C95  1  0.27541894  0.39875260  0.98833174  1  -0.383964
  C  C96  1  0.18117028  0.64748687  0.09322426  1  0.336158
  C  C97  1  0.94909865  0.44386643  0.04145763  1  0.134560
  C  C98  1  0.08610639  0.48143660  0.87992410  1  0.046365
  C  C99  1  0.02169915  0.46016460  0.82783080  1  -0.059890
  C  C100  1  0.27139750  0.50334466  0.20136414  1  0.106984
  C  C101  1  0.31204316  0.55220395  0.24586740  1  -0.212721
  C  C102  1  0.49688855  0.45155490  0.00948866  1  0.520060
  C  C103  1  0.57438200  0.45774940  0.06020939  1  -0.221847
  C  C104  1  0.27424780  0.27952980  0.96250690  1  0.144030
  C  C105  1  0.30097820  0.23066947  0.89831280  1  -0.215202
  N  N106  1  0.55025150  0.78774310  0.08653335  1  -0.177439
  N  N107  1  0.57415980  0.30994055  0.04708363  1  -0.089563
  O  O108  1  0.68730130  0.29191480  0.13633603  1  -0.216695
  O  O109  1  0.69194280  0.76195560  0.15565747  1  -0.329918
  O  O110  1  0.46080002  0.33214098  0.95834583  1  -0.242910
  O  O111  1  0.39516798  0.96237210  0.01736672  1  -0.255324
  O  O112  1  0.66679025  0.14514112  0.15790105  1  -0.195007
  O  O113  1  0.40147966  0.81087970  0.02327905  1  -0.215469
  O  O114  1  0.28053367  0.62350430  0.07356323  1  -0.436675
  O  O115  1  0.01059527  0.37840396  0.03289521  1  -0.237333
  O  O116  1  0.13481256  0.71732557  0.09136429  1  -0.250909
  O  O117  1  0.84947205  0.45402348  0.06545079  1  -0.363753
  O  O118  1  0.12659495  0.41884014  0.92191386  1  -0.210253
  O  O119  1  0.32848670  0.50144535  0.13201524  1  -0.347703
  O  O120  1  0.43850544  0.39750470  0.03509636  1  -0.153546
  O  O121  1  0.32861006  0.33755413  0.94897634  1  -0.127121
