# CIF file generated by openbabel 3.1.0, see https://openbabel.org
data_I
_chemical_name_common 'pretrained/mofdiff_ckpt/samples_1_seed_123/cif/sample_0'
_cell_length_a 10.5451
_cell_length_b 11.3846
_cell_length_c 14.3848
_cell_angle_alpha 90.9659
_cell_angle_beta 105.73
_cell_angle_gamma 105.901
_space_group_name_H-M_alt 'P 1'
_space_group_name_Hall 'P 1'
loop_
    _symmetry_equiv_pos_as_xyz
    x,y,z
loop_
    _atom_site_label
    _atom_site_type_symbol
    _atom_site_fract_x
    _atom_site_fract_y
    _atom_site_fract_z
    _atom_site_occupancy
    Zn0      Zn       0.59994    0.96920    0.10196    1.000
    Zn1      Zn       0.29474    0.93340    0.00123    1.000
    H2       H        0.64835    0.00973    0.59065    1.000
    H3       H        0.70978    0.88291    0.31451    1.000
    H4       H        0.00332    0.81821    0.18144    1.000
    H5       H        0.24294    0.88351    0.51297    1.000
    H6       H        0.73318    0.08610    0.75815    1.000
    H7       H        0.91434    0.13819    0.91038    1.000
    H8       H        0.17113    0.98895    0.79185    1.000
    H9       H        0.68036    0.94219    0.44367    1.000
    H10      H        0.20177    0.93045    0.66228    1.000
    H11      H        0.17364    0.84396    0.33913    1.000
    C12      C        0.73997    0.81490    0.14042    1.000
    C13      C        0.04838    0.05231    0.86566    1.000
    C14      C        0.84479    0.84871    0.23779    1.000
    C15      C        0.82693    0.06152    0.76343    1.000
    C16      C        0.93009    0.09038    0.85100    1.000
    C17      C        0.07209    0.00286    0.78248    1.000
    C18      C        0.97208    0.98199    0.68819    1.000
    C19      C        0.84660    0.00840    0.68223    1.000
    C20      C        0.99366    0.94303    0.59885    1.000
    C21      C        0.88849    0.92928    0.50729    1.000
    C22      C        0.76375    0.95065    0.50858    1.000
    C23      C        0.74385    0.98935    0.59410    1.000
    C24      C        0.11905    0.92322    0.59718    1.000
    C25      C        0.14378    0.89600    0.51030    1.000
    C26      C        0.04352    0.88326    0.42126    1.000
    C27      C        0.91279    0.89737    0.41731    1.000
    C28      C        0.07354    0.85429    0.33603    1.000
    C29      C        0.97584    0.83767    0.24596    1.000
    C30      C        0.81297    0.87814    0.32340    1.000
    C31      C        0.15282    0.08603    0.96474    1.000
    O32      O        0.69081    0.69829    0.11370    1.000
    O33      O        0.71531    0.89986    0.08305    1.000
    O34      O        0.20067    0.20277    0.99272    1.000
    O35      O        0.17600    0.00113    0.02316    1.000
    H36      H        0.79823    0.85912    0.12431    1.000
    H37      H        0.11975    0.06204    0.01733    1.000
    H38      H        0.83499    0.14141    0.98825    1.000
    H39      H        0.87530    0.70946    0.01698    1.000
    C40      C        0.98910    0.90796    0.03918    1.000
    C41      C        0.87534    0.96414    0.03075    1.000
    C42      C        0.86644    0.06472    0.96766    1.000
    C43      C        0.96516    0.77901    0.06145    1.000
    N44      N        0.10524    0.97039    0.02702    1.000
    N45      N        0.78606    0.92627    0.07845    1.000
    O46      O        0.89601    0.06305    0.89134    1.000
    O47      O        0.03813    0.75112    0.13376    1.000
    H48      H        0.57869    0.40611    0.09732    1.000
    H49      H        0.31762    0.49941    0.00977    1.000
    H50      H        0.27937    0.27047    0.98413    1.000
    H51      H        0.61593    0.63489    0.12535    1.000
    C52      C        0.46435    0.74168    0.07860    1.000
    C53      C        0.43070    0.16337    0.03063    1.000
    C54      C        0.50939    0.62545    0.08621    1.000
    C55      C        0.38615    0.27988    0.02259    1.000
    C56      C        0.42457    0.51023    0.04859    1.000
    C57      C        0.47153    0.39525    0.05908    1.000
    O58      O        0.32742    0.72264    0.03343    1.000
    O59      O        0.56672    0.18186    0.07761    1.000
    O60      O        0.56067    0.84774    0.13053    1.000
    O61      O        0.33346    0.05676    0.98051    1.000
