# generated using pymatgen
data_ZnC15NCl(OF2)4
_symmetry_space_group_name_H-M   'P 1'
_cell_length_a   11.22537000
_cell_length_b   12.53059000
_cell_length_c   12.84100000
_cell_angle_alpha   94.08794000
_cell_angle_beta   89.86751000
_cell_angle_gamma   91.28719000
_symmetry_Int_Tables_number   1
_chemical_formula_structural   ZnC15NCl(OF2)4
_chemical_formula_sum   'Zn2 C30 N2 Cl2 O8 F16'
_cell_volume   1801.17114006
_cell_formula_units_Z   2
loop_
 _symmetry_equiv_pos_site_id
 _symmetry_equiv_pos_as_xyz
  1  'x, y, z'
loop_
 _atom_site_type_symbol
 _atom_site_label
 _atom_site_symmetry_multiplicity
 _atom_site_fract_x
 _atom_site_fract_y
 _atom_site_fract_z
 _atom_site_occupancy
  Zn  Zn0  1  0.72377340  0.81285810  0.12735707  1
  Zn  Zn1  1  0.87706923  0.94948790  0.28308553  1
  C  C2  1  0.93472177  0.96003330  0.99226314  1
  C  C3  1  0.71319515  0.83748100  0.52294550  1
  C  C4  1  0.89706500  0.91419110  0.88647160  1
  C  C5  1  0.89171330  0.76442575  0.75378170  1
  C  C6  1  0.92322350  0.80793260  0.85407270  1
  C  C7  1  0.83541200  0.97570480  0.81723000  1
  C  C8  1  0.78975815  0.92831310  0.72127134  1
  C  C9  1  0.82441807  0.82370070  0.68620133  1
  C  C10  1  0.79007290  0.78098744  0.58488464  1
  C  C11  1  0.66651523  0.93399847  0.56520420  1
  C  C12  1  0.70745420  0.98106940  0.66076910  1
  C  C13  1  0.67579610  0.79345890  0.41707048  1
  C  C14  1  0.85556640  0.61640924  0.25933987  1
  C  C15  1  0.74990630  0.14292906  0.14971662  1
  C  C16  1  0.71819970  0.58395106  0.11602780  1
  C  C17  1  0.88823590  0.17531589  0.29232493  1
  C  C18  1  0.84680640  0.72710365  0.24924974  1
  C  C19  1  0.75861865  0.03223268  0.15981822  1
  C  C20  1  0.71070400  0.69527800  0.10937945  1
  C  C21  1  0.89573467  0.06398301  0.29893237  1
  C  C22  1  0.79098815  0.54333780  0.19201097  1
  C  C23  1  0.81494886  0.21597512  0.21672660  1
  C  C24  1  0.79945360  0.42778224  0.20072922  1
  C  C25  1  0.80651134  0.33153307  0.20800973  1
  C  C26  1  0.05829544  0.79044515  0.24940336  1
  C  C27  1  0.54823655  0.97344464  0.15716635  1
  C  C28  1  0.44264910  0.90915424  0.13850660  1
  C  C29  1  0.16674986  0.85218596  0.27097318  1
  C  C30  1  0.36738756  0.89975680  0.21848875  1
  C  C31  1  0.25787625  0.83853006  0.20389107  1
  N  N32  1  0.77465767  0.76489060  0.17539859  1
  N  N33  1  0.83117690  0.99440240  0.23334870  1
  Cl  Cl34  1  0.54778840  0.99360144  0.50453675  1
  Cl  Cl35  1  0.82800700  0.11415076  0.84632945  1
  O  O36  1  0.02453971  0.02985501  0.99654520  1
  O  O37  1  0.87359446  0.92858535  0.07318807  1
  O  O38  1  0.73348830  0.82864577  0.33611557  1
  O  O39  1  0.58301380  0.72771806  0.41249296  1
  O  O40  1  0.06829038  0.70289370  0.19583875  1
  O  O41  1  0.53748226  0.05981970  0.21255763  1
  O  O42  1  0.95818204  0.82920960  0.27328083  1
  O  O43  1  0.64759076  0.93350370  0.13511540  1
  F  F44  1  0.82998806  0.68454057  0.54651076  1
  F  F45  1  0.92393726  0.66281960  0.72474784  1
  F  F46  1  0.65805745  0.07441759  0.69713790  1
  F  F47  1  0.98364556  0.74716300  0.91853935  1
  F  F48  1  0.92695650  0.58094066  0.33413336  1
  F  F49  1  0.67816570  0.17843970  0.07520558  1
  F  F50  1  0.65463346  0.51639280  0.04879005  1
  F  F51  1  0.95232654  0.24283442  0.35920647  1
  F  F52  1  0.91115190  0.79679410  0.31345790  1
  F  F53  1  0.69387600  0.96256910  0.09590492  1
  F  F54  1  0.63916640  0.73360630  0.03649161  1
  F  F55  1  0.96800680  0.02562634  0.37125316  1
  F  F56  1  0.24832886  0.76960800  0.11708292  1
  F  F57  1  0.39398888  0.94542265  0.31558776  1
  F  F58  1  0.17105953  0.92669606  0.35341580  1
  F  F59  1  0.42405190  0.85928030  0.04205851  1
