# generated using pymatgen
data_Cu4H81C111BrN12O43
_symmetry_space_group_name_H-M   'P 1'
_cell_length_a   16.71055000
_cell_length_b   16.95416000
_cell_length_c   21.98251000
_cell_angle_alpha   91.03547000
_cell_angle_beta   91.77966000
_cell_angle_gamma   81.26171000
_symmetry_Int_Tables_number   1
_chemical_formula_structural   Cu4H81C111BrN12O43
_chemical_formula_sum   'Cu4 H81 C111 Br1 N12 O43'
_cell_volume   6152.11674129
_cell_formula_units_Z   1
loop_
 _symmetry_equiv_pos_site_id
 _symmetry_equiv_pos_as_xyz
  1  'x, y, z'
loop_
 _atom_site_type_symbol
 _atom_site_label
 _atom_site_symmetry_multiplicity
 _atom_site_fract_x
 _atom_site_fract_y
 _atom_site_fract_z
 _atom_site_occupancy
  _atom_site_charge
  Cu  Cu0  1  0.40674260  0.90667987  0.28584617  1  1.472914
  Cu  Cu1  1  0.28463605  0.82473296  0.26095864  1  -3.133307
  Cu  Cu2  1  0.81156570  0.29960126  0.25950220  1  -1.102905
  Cu  Cu3  1  0.86665654  0.43621975  0.28728873  1  1.276214
  H  H4  1  0.46624634  0.59799916  0.32038930  1  0.090227
  H  H5  1  0.64712270  0.58816280  0.16671154  1  0.045751
  H  H6  1  0.59686390  0.81197130  0.42386496  1  0.035758
  H  H7  1  0.51231240  0.77912897  0.38696990  1  0.021163
  H  H8  1  0.56413150  0.85599430  0.35360667  1  0.106904
  H  H9  1  0.48369798  0.47886342  0.36817610  1  0.045759
  H  H10  1  0.56035950  0.39290708  0.35478148  1  0.072492
  H  H11  1  0.46971974  0.40888530  0.30801526  1  0.071449
  H  H12  1  0.71338910  0.83218520  0.22841099  1  0.065332
  H  H13  1  0.68528100  0.84236956  0.30769610  1  0.074866
  H  H14  1  0.62745080  0.89961183  0.25061035  1  0.112118
  H  H15  1  0.78424084  0.57235885  0.17641525  1  0.063149
  H  H16  1  0.84264920  0.62328250  0.23226535  1  0.117223
  H  H17  1  0.81597114  0.66434120  0.15961836  1  0.064518
  H  H18  1  0.76897880  0.75282377  0.36415630  1  0.051638
  H  H19  1  0.79711443  0.74523350  0.28421324  1  0.041920
  H  H20  1  0.85567050  0.69005790  0.33946717  1  0.052177
  H  H21  1  0.65452313  0.62325600  0.40749395  1  0.054718
  H  H22  1  0.74281720  0.54674983  0.39434230  1  0.051980
  H  H23  1  0.67795530  0.54069555  0.45529673  1  0.042543
  H  H24  1  0.47996900  0.60503507  0.10233335  1  0.067256
  H  H25  1  0.40758246  0.68590350  0.13320273  1  0.072286
  H  H26  1  0.38324127  0.58624095  0.12605895  1  0.068180
  H  H27  1  0.52961516  0.64287674  0.37047222  1  0.077081
  H  H28  1  0.54277450  0.68440800  0.17581110  1  0.059130
  H  H29  1  0.99731360  0.39391646  0.66716130  1  0.057775
  H  H30  1  0.02003550  0.46197826  0.76297560  1  0.039971
  H  H31  1  0.68623760  0.34307550  0.87479526  1  0.055053
  H  H32  1  0.66353595  0.27500507  0.77900440  1  0.055313
  H  H33  1  0.89657307  0.62123180  0.92535970  1  0.066597
  H  H34  1  0.92293120  0.68955540  0.02138639  1  0.047940
  H  H35  1  0.90481836  0.47490683  0.11946452  1  0.043773
  H  H36  1  0.88303540  0.40551720  0.02295733  1  0.062102
  H  H37  1  0.78699540  0.11572741  0.61664450  1  0.073435
  H  H38  1  0.76064134  0.04736533  0.52063346  1  0.038896
  H  H39  1  0.77880420  0.26196066  0.42249924  1  0.028913
  H  H40  1  0.80055540  0.33138686  0.51897424  1  0.067424
  H  H41  1  0.91557960  0.43962175  0.27590215  1  -0.464313
  H  H42  1  0.75312730  0.26666167  0.24807130  1  -0.632148
  H  H43  1  0.43494335  0.96084535  0.23578894  1  0.004431
  H  H44  1  0.15599503  0.90580540  0.26463908  1  0.819095
  H  H45  1  0.15986624  0.31149150  0.29358770  1  0.050034
  H  H46  1  0.08532989  0.25933304  0.32406032  1  0.045314
  H  H47  1  0.08628036  0.44061893  0.33929762  1  0.075639
  H  H48  1  0.01985050  0.38161546  0.37434348  1  0.058908
  H  H49  1  0.13851732  0.30388096  0.42963043  1  0.057649
  H  H50  1  0.13251059  0.40947770  0.44546834  1  0.064315
  H  H51  1  0.20593790  0.36146470  0.39312786  1  0.064649
  H  H52  1  0.88440460  0.06752468  0.15207334  1  0.054921
  H  H53  1  0.91918695  0.15992372  0.13912790  1  0.059673
  H  H54  1  0.73990260  0.13416529  0.14535296  1  0.047837
  H  H55  1  0.77327776  0.22800799  0.13079977  1  0.029607
  H  H56  1  0.84090865  0.16911277  0.03666842  1  0.067524
  H  H57  1  0.73395990  0.16315778  0.03489588  1  0.073515
  H  H58  1  0.80616534  0.07520987  0.05131586  1  0.065090
  H  H59  1  0.38455492  0.17615752  0.25371882  1  0.067429
  H  H60  1  0.41827297  0.08231562  0.28782043  1  0.022338
  H  H61  1  0.25113478  0.18636309  0.30656356  1  0.060700
  H  H62  1  0.28838410  0.09478287  0.34532350  1  0.047777
  H  H63  1  0.40266624  0.15720642  0.39188313  1  0.065500
  H  H64  1  0.30514896  0.21219980  0.41037387  1  0.054915
  H  H65  1  0.36442983  0.24964947  0.35338900  1  0.068224
  H  H66  1  0.21389640  0.68801830  0.25077880  1  0.075692
  H  H67  1  0.27792048  0.72677994  0.19852164  1  -0.084220
  H  H68  1  0.17725469  0.78001390  0.21410416  1  -0.117000
  H  H69  1  0.32471788  0.69991136  0.86505790  1  0.057219
  H  H70  1  0.27535284  0.67753530  0.76197090  1  0.052756
  H  H71  1  0.36298126  0.03646278  0.68026876  1  0.050453
  H  H72  1  0.41236103  0.05882204  0.78333280  1  0.061320
  H  H73  1  0.12665420  0.79518026  0.58952470  1  0.074723
  H  H74  1  0.07755883  0.76916796  0.48603633  1  0.037283
  H  H75  1  0.29987317  0.82490885  0.41460803  1  -0.035699
  H  H76  1  0.35056382  0.84645754  0.51848596  1  0.065771
  H  H77  1  0.56108650  0.94118565  0.95575790  1  0.053137
  H  H78  1  0.61022234  0.96720040  0.05923510  1  0.037166
  H  H79  1  0.38795844  0.91141160  0.13072240  1  0.078411
  H  H80  1  0.33722308  0.88988630  0.02687347  1  0.072468
  H  H81  1  0.88942486  0.72837687  0.28387675  1  0.145920
  H  H82  1  0.28463644  0.51116580  0.22019285  1  0.174569
  H  H83  1  0.37711027  0.18819909  0.28067770  1  0.117043
  H  H84  1  0.80160660  0.04910793  0.32158390  1  0.184539
  C  C85  1  0.46030852  0.73925120  0.27385148  1  -0.082265
  C  C86  1  0.72398025  0.49655074  0.26649693  1  0.152497
  C  C87  1  0.61457520  0.71629125  0.28785425  1  0.129647
  C  C88  1  0.68937576  0.65029130  0.27286643  1  0.168928
  C  C89  1  0.52738480  0.61632025  0.32426510  1  -0.168152
  C  C90  1  0.53526010  0.63645047  0.20864658  1  0.035231
  C  C91  1  0.53343190  0.67761630  0.27414373  1  0.078055
  C  C92  1  0.57106110  0.79899450  0.37834543  1  -0.007983
  C  C93  1  0.65663487  0.56395197  0.26589120  1  -0.089445
  C  C94  1  0.51543910  0.43942620  0.33270246  1  -0.026316
  C  C95  1  0.66245645  0.84007120  0.26017135  1  -0.042126
  C  C96  1  0.79381830  0.63051230  0.19668068  1  -0.018432
  C  C97  1  0.79270846  0.71245940  0.32651340  1  -0.028228
  C  C98  1  0.67862374  0.55952220  0.40728590  1  -0.020198
  C  C99  1  0.43266314  0.62151670  0.13677010  1  -0.046607
  C  C100  1  0.59441173  0.54340220  0.31614295  1  0.229208
  C  C101  1  0.60944533  0.56992310  0.20281830  1  0.060429
  C  C102  1  0.75174105  0.10775576  0.40559623  1  0.262464
  C  C103  1  0.75555780  0.26956472  0.67891216  1  0.178106
  C  C104  1  0.87516530  0.30904624  0.64016680  1  0.176192
  C  C105  1  0.88886786  0.34986848  0.69509876  1  -0.043322
  C  C106  1  0.83515215  0.34862605  0.74301320  1  0.020675
  C  C107  1  0.76818920  0.30778244  0.73514250  1  -0.049533
  C  C108  1  0.95525300  0.39137825  0.70332825  1  -0.037089
  C  C109  1  0.96832010  0.43054163  0.75845910  1  0.040494
  C  C110  1  0.91537130  0.42920380  0.80682640  1  -0.075269
  C  C111  1  0.84841760  0.38834860  0.79894530  1  0.039584
  C  C112  1  0.79467410  0.38713524  0.84686830  1  -0.057258
  C  C113  1  0.72829646  0.34561107  0.83862990  1  -0.010509
  C  C114  1  0.71522766  0.30644503  0.78350073  1  -0.014873
  C  C115  1  0.92801760  0.46739888  0.86306226  1  0.188418
  C  C116  1  0.80837140  0.42794350  0.90178220  1  0.180851
  C  C117  1  0.89918420  0.58857020  0.96743130  1  -0.060596
  C  C118  1  0.91393280  0.62767136  0.02241480  1  0.003978
  C  C119  1  0.91577360  0.58771730  0.07809198  1  -0.063527
  C  C120  1  0.90319590  0.50751920  0.07741117  1  0.023154
  C  C121  1  0.89049410  0.46783680  0.02226841  1  -0.075082
  C  C122  1  0.88800310  0.50792706  0.96656120  1  0.113251
  C  C123  1  0.78437877  0.14837505  0.57455490  1  -0.087846
  C  C124  1  0.76964700  0.10925988  0.51959825  1  0.029934
  C  C125  1  0.76782860  0.14917102  0.46389455  1  -0.078917
  C  C126  1  0.78042096  0.22936527  0.46455976  1  0.028257
  C  C127  1  0.79311130  0.26907560  0.51969373  1  -0.089546
  C  C128  1  0.79557440  0.22901444  0.57540940  1  0.127585
  C  C129  1  0.93184880  0.62911403  0.13640213  1  0.265113
  C  C130  1  0.82588345  0.36065152  0.26455015  1  -0.546709
  C  C131  1  0.15751237  0.05891944  0.23841640  1  0.109520
  C  C132  1  0.02709807  0.17560504  0.23638473  1  0.244547
  C  C133  1  0.30879566  0.01188723  0.23693658  1  0.032968
  C  C134  1  0.37401270  0.94930380  0.24323718  1  0.223140
  C  C135  1  0.36126712  0.87254320  0.25937757  1  -2.808654
  C  C136  1  0.28135347  0.85663900  0.26487577  1  6.570382
  C  C137  1  0.21659060  0.91858250  0.25777638  1  -3.032299
  C  C138  1  0.22894326  0.99583423  0.24301004  1  0.847121
  C  C139  1  0.75518380  0.42349790  0.27197236  1  -0.185746
  C  C140  1  0.43130794  0.80895346  0.26800227  1  -0.079603
  C  C141  1  0.90506446  0.37907505  0.26660648  1  -0.350424
  C  C142  1  0.97168300  0.31992766  0.25630414  1  -0.001543
  C  C143  1  0.95861423  0.24096434  0.24181229  1  1.134536
  C  C144  1  0.87861150  0.22325893  0.23739960  1  -1.370188
  C  C145  1  0.81367236  0.28228676  0.25054760  1  2.978044
  C  C146  1  0.09545061  0.31814975  0.30653480  1  0.042916
  C  C147  1  0.08165006  0.38090175  0.35728392  1  -0.053509
  C  C148  1  0.14357075  0.36252806  0.40957360  1  -0.145888
  C  C149  1  0.86927380  0.13306606  0.15927520  1  -0.068731
  C  C150  1  0.78875005  0.16221024  0.12559200  1  -0.024768
  C  C151  1  0.79299020  0.14097810  0.05790526  1  -0.159547
  C  C152  1  0.36317998  0.12225224  0.27134076  1  0.055707
  C  C153  1  0.30654067  0.14816144  0.32416433  1  -0.082288
  C  C154  1  0.34755450  0.19467251  0.37289178  1  -0.133213
  C  C155  1  0.23243402  0.74368860  0.23414539  1  0.641757
  C  C156  1  0.53280570  0.95704645  0.16606605  1  0.127846
  C  C157  1  0.41536722  0.95823960  0.87839960  1  0.078011
  C  C158  1  0.38722390  0.83016620  0.90672770  1  0.178922
  C  C159  1  0.35724980  0.81642735  0.84739166  1  -0.039316
  C  C160  1  0.35826350  0.87471030  0.80275124  1  0.014770
  C  C161  1  0.38799083  0.94603574  0.81812830  1  -0.015042
  C  C162  1  0.32684454  0.74562430  0.83161160  1  -0.017731
  C  C163  1  0.29843820  0.73275614  0.77229613  1  -0.006974
  C  C164  1  0.29971695  0.79033120  0.72718630  1  -0.059601
  C  C165  1  0.32945540  0.86164790  0.74257460  1  0.042215
  C  C166  1  0.33043810  0.91995550  0.69792370  1  -0.075721
  C  C167  1  0.36085720  0.99075210  0.71371380  1  0.024297
  C  C168  1  0.38926616  0.00362253  0.77302800  1  -0.023036
  C  C169  1  0.27236560  0.77811587  0.66691154  1  0.182068
  C  C170  1  0.30047440  0.90622205  0.63860740  1  0.184837
  C  C171  1  0.16523765  0.80092750  0.55168253  1  -0.098940
  C  C172  1  0.13709906  0.78637826  0.49244404  1  0.044956
  C  C173  1  0.18473779  0.79516214  0.44206550  1  -0.116334
  C  C174  1  0.26147535  0.81818470  0.45239360  1  0.046767
  C  C175  1  0.29043782  0.83075640  0.51176320  1  -0.108217
  C  C176  1  0.24257300  0.82259930  0.56218505  1  0.133961
  C  C177  1  0.52251330  0.93544390  0.99361960  1  -0.051261
  C  C178  1  0.55067170  0.94998090  0.05283248  1  -0.036097
  C  C179  1  0.50307420  0.94117780  0.10324109  1  0.010657
  C  C180  1  0.42634016  0.91813950  0.09292817  1  0.027883
  C  C181  1  0.39734748  0.90557480  0.03356457  1  -0.104596
  C  C182  1  0.44518125  0.91375660  0.98313224  1  0.122580
  C  C183  1  0.15502470  0.77930920  0.37923150  1  0.304337
  C  C184  1  0.02301568  0.53550530  0.27270862  1  0.232208
  C  C185  1  0.09387158  0.57649493  0.26591265  1  -0.121671
  C  C186  1  0.08948873  0.65798340  0.27277893  1  -0.006485
  C  C187  1  0.01176261  0.71146200  0.28502318  1  0.141407
  C  C188  1  0.17110738  0.52336520  0.25176707  1  0.309725
  C  C189  1  0.16127147  0.69841194  0.26927720  1  0.136957
  C  C190  1  0.60378860  0.07568164  0.27770928  1  0.121986
  C  C191  1  0.58156866  0.15691495  0.27270192  1  -0.125364
  C  C192  1  0.64175004  0.21197888  0.27037507  1  0.114646
  C  C193  1  0.54454035  0.01948663  0.27513710  1  -0.290517
  C  C194  1  0.49495238  0.19491582  0.26748100  1  0.317472
  C  C195  1  0.68997157  0.03878263  0.28760433  1  0.153058
  Br  Br196  1  0.58555380  0.47016898  0.16308734  1  -0.181346
  N  N197  1  0.80902550  0.27004403  0.63259083  1  -0.170369
  N  N198  1  0.87453896  0.46692267  0.90937270  1  -0.170665
  N  N199  1  0.02391576  0.10539744  0.26396143  1  -0.728444
  N  N200  1  0.08770226  0.04822610  0.26481795  1  -0.057736
  N  N201  1  0.16019829  0.12865898  0.20963906  1  -0.063540
  N  N202  1  0.09619424  0.18608157  0.20873626  1  -0.091272
  N  N203  1  0.41530344  0.90045740  0.92156875  1  -0.154555
  N  N204  1  0.27242327  0.83590760  0.62375320  1  -0.174655
  N  N205  1  0.96781987  0.50162310  0.27748360  1  -0.052360
  N  N206  1  0.21700910  0.73193777  0.26635227  1  -0.464686
  N  N207  1  0.49909850  0.97357965  0.27479360  1  -0.154334
  N  N208  1  0.68774810  0.25707135  0.26780337  1  0.004650
  O  O209  1  0.55400556  0.48166220  0.28998226  1  -0.151426
  O  O210  1  0.61145794  0.78229725  0.24691562  1  -0.065166
  O  O211  1  0.72017264  0.67426866  0.21652043  1  -0.191130
  O  O212  1  0.74987940  0.64655050  0.32096317  1  -0.174807
  O  O213  1  0.63212323  0.51209140  0.37232342  1  -0.203343
  O  O214  1  0.46278822  0.60371304  0.19653714  1  -0.136496
  O  O215  1  0.47373793  0.81053245  0.28155366  1  1.545262
  O  O216  1  0.38794613  0.72224270  0.26131940  1  0.271152
  O  O217  1  0.79475266  0.51225936  0.28072140  1  -0.419311
  O  O218  1  0.70896080  0.42396963  0.26048714  1  0.428873
  O  O219  1  0.62559740  0.73777110  0.35107017  1  -0.175475
  O  O220  1  0.71238130  0.04757629  0.40737617  1  -0.221932
  O  O221  1  0.77860900  0.13327341  0.35591690  1  -0.188263
  O  O222  1  0.68956965  0.23319164  0.67051110  1  -0.190940
  O  O223  1  0.92841870  0.30755836  0.59511990  1  -0.197069
  O  O224  1  0.99402090  0.50374940  0.87146866  1  -0.189327
  O  O225  1  0.75511575  0.42945360  0.94683290  1  -0.187412
  O  O226  1  0.97120845  0.68929964  0.13464534  1  -0.220074
  O  O227  1  0.90498290  0.60357420  0.18607771  1  -0.235383
  O  O228  1  0.76607320  0.49614847  0.28659440  1  0.036389
  O  O229  1  0.68323610  0.40499634  0.26093704  1  -0.465327
  O  O230  1  0.50265604  0.82701790  0.28374810  1  -1.608814
  O  O231  1  0.41981897  0.73586570  0.25809076  1  -0.353984
  O  O232  1  0.04775478  0.34273875  0.25392154  1  -0.108767
  O  O233  1  0.86267275  0.14723156  0.22280386  1  0.137281
  O  O234  1  0.32231843  0.08796253  0.22248590  1  -0.247020
  O  O235  1  0.26648578  0.78283600  0.28354040  1  -0.103536
  O  O236  1  0.58665746  0.00434923  0.17289817  1  -0.145186
  O  O237  1  0.50410170  0.92214210  0.21089184  1  -0.126148
  O  O238  1  0.44076990  0.02795434  0.89374830  1  -0.125963
  O  O239  1  0.38924667  0.77297896  0.94887460  1  -0.189578
  O  O240  1  0.24698785  0.70838970  0.65155940  1  -0.193712
  O  O241  1  0.29843010  0.96340890  0.59645426  1  -0.204580
  O  O242  1  0.10117031  0.73200790  0.37237594  1  -0.213901
  O  O243  1  0.18375015  0.81421405  0.33441190  1  -0.336902
  O  O244  1  0.01346296  0.77956265  0.30389960  1  -0.182250
  O  O245  1  0.93687500  0.68584806  0.27389586  1  -0.314128
  O  O246  1  0.17674120  0.45149308  0.25988156  1  -0.241650
  O  O247  1  0.23653013  0.55396444  0.22792934  1  -0.317027
  O  O248  1  0.47822773  0.26294693  0.24836442  1  -0.232409
  O  O249  1  0.43262354  0.15493440  0.28579882  1  -0.359477
  O  O250  1  0.71112020  0.96874845  0.27346882  1  -0.172514
  O  O251  1  0.74627490  0.08225407  0.31525514  1  -0.226275
