# generated using pymatgen
data_ZnC5N3O8
_symmetry_space_group_name_H-M   'P 1'
_cell_length_a   7.55005370
_cell_length_b   8.77291056
_cell_length_c   10.99797032
_cell_angle_alpha   87.37797845
_cell_angle_beta   88.40189639
_cell_angle_gamma   80.65735072
_symmetry_Int_Tables_number   1
_chemical_formula_structural   ZnC5N3O8
_chemical_formula_sum   'Zn2 C10 N6 O16'
_cell_volume   717.89077242
_cell_formula_units_Z   2
loop_
 _symmetry_equiv_pos_site_id
 _symmetry_equiv_pos_as_xyz
  1  'x, y, z'
loop_
 _atom_site_type_symbol
 _atom_site_label
 _atom_site_symmetry_multiplicity
 _atom_site_fract_x
 _atom_site_fract_y
 _atom_site_fract_z
 _atom_site_occupancy
  C  C0  1  0.00950058  0.81140301  0.33872958  1
  C  C1  1  0.95644311  0.24937358  0.77194126  1
  C  C2  1  0.95880944  0.28216833  0.89747134  1
  C  C3  1  0.93246522  0.54212592  0.36709692  1
  C  C4  1  0.96788067  0.97508291  0.30983842  1
  C  C5  1  0.88699356  0.70711133  0.36331175  1
  C  C6  1  0.95214111  0.23136017  0.66356208  1
  C  C7  1  0.94646178  0.20991367  0.53460433  1
  C  C8  1  0.96240089  0.31115133  0.12433733  1
  C  C9  1  0.96250256  0.29622583  0.00645017  1
  N  N10  1  0.18818790  0.75412805  0.37013883  1
  N  N11  1  0.50667733  0.32622917  0.32543000  1
  N  N12  1  0.70278156  0.76560265  0.35938033  1
  N  N13  1  0.40152600  0.20721067  0.33742958  1
  N  N14  1  0.46421711  0.12335592  0.44295200  1
  N  N15  1  0.43857244  0.42525000  0.22885342  1
  O  O16  1  0.09632139  0.46701650  0.34669683  1
  O  O17  1  0.21990104  0.67836592  0.47371883  1
  O  O18  1  0.40858900  0.98893858  0.44415542  1
  O  O19  1  0.59782767  0.71772313  0.44380742  1
  O  O20  1  0.64248544  0.80486972  0.25126858  1
  O  O21  1  0.31724846  0.79924580  0.30612733  1
  O  O22  1  0.79615967  0.46598600  0.37181600  1
  O  O23  1  0.08926404  0.22984233  0.47049883  1
  O  O24  1  0.10608043  0.05067133  0.29342075  1
  O  O25  1  0.39789132  0.19160458  0.53003658  1
  O  O26  1  0.80397022  0.05396892  0.32261517  1
  O  O27  1  0.79079267  0.22211942  0.48293858  1
  O  O28  1  0.11568750  0.30633575  0.17787192  1
  O  O29  1  0.49777978  0.54336583  0.23622842  1
  O  O30  1  0.81736644  0.29004608  0.18684658  1
  O  O31  1  0.49642167  0.36752758  0.13552058  1
  Zn  Zn32  1  0.15005347  0.25206100  0.32501025  1
  Zn  Zn33  1  0.75579478  0.27196500  0.33451008  1
