# generated using pymatgen
data_Zn2H11C25N5O12
_symmetry_space_group_name_H-M   'P 1'
_cell_length_a   7.12792389
_cell_length_b   12.22752482
_cell_length_c   12.78943674
_cell_angle_alpha   92.76958953
_cell_angle_beta   91.67034879
_cell_angle_gamma   99.51273995
_symmetry_Int_Tables_number   1
_chemical_formula_structural   Zn2H11C25N5O12
_chemical_formula_sum   'Zn2 H11 C25 N5 O12'
_cell_volume   1097.29442467
_cell_formula_units_Z   1
loop_
 _symmetry_equiv_pos_site_id
 _symmetry_equiv_pos_as_xyz
  1  'x, y, z'
loop_
 _atom_site_type_symbol
 _atom_site_label
 _atom_site_symmetry_multiplicity
 _atom_site_fract_x
 _atom_site_fract_y
 _atom_site_fract_z
 _atom_site_occupancy
  C  C0  1  0.94681847  0.58638958  0.03907344  1
  C  C1  1  0.97201277  0.00048559  0.00163700  1
  C  C2  1  0.04342150  0.49819450  0.03127689  1
  C  C3  1  0.11772750  0.17936915  0.17856969  1
  C  C4  1  0.13687600  0.16795418  0.28227811  1
  C  C5  1  0.18264333  0.05565381  0.42825675  1
  C  C6  1  0.20007083  0.07347477  0.32061325  1
  C  C7  1  0.08202700  0.24999025  0.35375225  1
  C  C8  1  0.07273267  0.23502942  0.46280362  1
  C  C9  1  0.12103583  0.13599539  0.50045325  1
  C  C10  1  0.01415300  0.31667933  0.53482250  1
  C  C11  1  0.46255267  0.60778917  0.88591412  1
  C  C12  1  0.20669317  0.49069633  0.97382825  1
  C  C13  1  0.29845150  0.59465100  0.93596175  1
  C  C14  1  0.23832483  0.38152308  0.96707625  1
  C  C15  1  0.08962150  0.19579063  0.79216950  1
  C  C16  1  0.06268467  0.20595408  0.67965875  1
  C  C17  1  0.10821900  0.12090050  0.60968500  1
  C  C18  1  0.00484167  0.30148542  0.64252500  1
  C  C19  1  0.91404233  0.77839108  0.01601741  1
  C  C20  1  0.01654633  0.68470267  0.00027622  1
  C  C21  1  0.99604655  0.88060408  0.97782175  1
  C  C22  1  0.26102983  0.79140458  0.91082087  1
  C  C23  1  0.19576500  0.69035183  0.94989050  1
  C  C24  1  0.15716350  0.87715183  0.91792062  1
  H  H25  1  0.81564347  0.57479075  0.07917235  1
  H  H26  1  0.98137718  0.38964325  0.51015538  1
  H  H27  1  0.56132467  0.21017892  0.08772893  1
  H  H28  1  0.24135983  0.01164310  0.27016376  1
  H  H29  1  0.98656705  0.43484233  0.07312242  1
  H  H30  1  0.96388269  0.36279458  0.69371363  1
  H  H31  1  0.64881012  0.17050067  0.88113700  1
  H  H32  1  0.78578700  0.76883342  0.05442040  1
  H  H33  1  0.21072683  0.98493933  0.45199388  1
  H  H34  1  0.38190500  0.80580483  0.87607050  1
  H  H35  1  0.20810517  0.93861842  0.88604375  1
  N  N36  1  0.53874383  0.16423084  0.01537647  1
  N  N37  1  0.04911650  0.35261975  0.31459275  1
  N  N38  1  0.61903252  0.63074450  0.83678275  1
  N  N39  1  0.67073658  0.22007233  0.95204937  1
  N  N40  1  0.13984700  0.01934289  0.65191275  1
  O  O41  1  0.96710022  0.21777625  0.14070694  1
  O  O42  1  0.88100150  0.38061850  0.31974250  1
  O  O43  1  0.82488930  0.04715623  0.00245399  1
  O  O44  1  0.25507267  0.15915865  0.11556028  1
  O  O45  1  0.16970700  0.40090167  0.25027836  1
  O  O46  1  0.38984800  0.34002483  0.95741987  1
  O  O47  1  0.95198845  0.21556917  0.85441300  1
  O  O48  1  0.24420833  0.16203354  0.82961100  1
  O  O49  1  0.10088483  0.30102858  0.97872650  1
  O  O50  1  0.12077950  0.07155502  0.98904187  1
  O  O51  1  0.30205817  0.98439142  0.63972350  1
  O  O52  1  0.02564583  0.97762658  0.72286662  1
  Zn  Zn53  1  0.91310505  0.19582828  0.99450825  1
  Zn  Zn54  1  0.29766483  0.19071995  0.97519100  1
