data_I
_chemical_name_common  'nh3_target_1.5/cif/sample_3'
_cell_length_a  8.47311
_cell_length_b  9.42723
_cell_length_c 14.34924
_cell_angle_alpha 88.49637
_cell_angle_beta  88.89297
_cell_angle_gamma 78.70042
_space_group_name_H-M_alt      'P 1'


loop_
_space_group_symop_operation_xyz
  'x, y, z' 

loop_
_atom_site_label
_atom_site_fract_x
_atom_site_fract_y
_atom_site_fract_z
_atom_site_type_symbol
H0    0.85895205 0.67933226 0.10873203     H
H1    0.53091717 0.50278395 0.34063542     H
H2    0.65184987 0.5017161 0.07404425     H
H3    0.7380342 0.6803983 0.37532943     H
H4    0.44714266 0.72265095 0.16541575     H
H5    0.942728 0.459465 0.28395903     H
C6    0.67021805 0.54370934 0.14376177     C
C7    0.71966594 0.638405 0.30561197     C
C8    0.79632944 0.6332354 0.16673763     C
C9    0.5935545 0.54887897 0.28263608     C
C10     0.5538 0.6582372 0.19908117     C
C11   0.83608407 0.52387714 0.25029257     C
N12   0.6814093 0.73727286 0.22255729     N
N13   0.7084747 0.44484144 0.22681639     N
Zn14  0.6326165 0.25318366 0.22335029    Zn
Zn15  0.75001216 0.93268144 0.22636819    Zn
H16   0.08896764 0.22923838 0.4615831     H
H17   0.027167229 0.803559 0.41624728     H
C18   0.38159448 0.14419542 0.23739633     C
C19   0.15508728 0.032272313 0.26708764     C
C20   0.9974443 0.03368346 0.22950831     C
C21   0.21080868 0.15597545 0.25965387     C
S22   0.1150911 0.3152066 0.3220444     S
S23   0.21009825 0.9197805 0.36663464     S
O24   0.47449648 0.0150164105 0.22776932     O
O25   0.9351505 0.35496077 0.31992882     O
O26   0.16348903 0.2892041 0.43515587     O
O27   0.2948127 0.77361155 0.33624166     O
O28   0.3199692 0.9833855  0.42718     O
O29   0.046644844 0.90102005 0.43011114     O
O30   0.9076342 0.16192842 0.22179644     O
O31   0.4337858 0.2657093 0.23415427     O
O32   0.9483449 0.9112355 0.21541151     O
O33   0.17645955 0.44317436 0.28183946     O
C34   0.66863847 0.14081874 0.39583147     C
C35   0.7044262 0.06095141 0.95127565     C
C36   0.7116321 0.04336346 0.052537084     C
C37   0.6768677 0.122947894 0.49708548     C
C38   0.6828549 0.110307805 0.5818631     C
C39   0.6890071 0.09707434 0.6817092     C
C40   0.6937987 0.08630981 0.766593     C
C41   0.6993495 0.07328192 0.8664624     C
O42   0.61088175 0.27031144 0.36045736     O
O43   0.71985215 0.027535021 0.3432905     O
O44   0.6610542 0.15679294 0.10506594     O
O45   0.7700248 0.9140164 0.08789921     O
loop_
_geom_bond_atom_site_label_1
_geom_bond_atom_site_label_2
_geom_bond_distance
_geom_bond_site_symmetry_2
_ccdc_geom_bond_type
H0    C8     1.10340       .     S
H1    C9     1.10339       .     S
H2    C6     1.11026       .     S
H3    C7     1.11026       .     S
H4    C10    1.09783       .     S
H5    C11    1.09775       .     S
C6    H2     1.11026       .     S
C6    C8     1.53116       .     S
C6    C10    1.53825       .     S
C6    N13    1.49410       .     S
C7    H3     1.11026       .     S
C7    C9     1.53116       .     S
C7    C11    1.53825       .     S
C7    N12    1.49410       .     S
C8    H0     1.10340       .     S
C8    C6     1.53116       .     S
C8    C11    1.55835       .     S
C8    N12    1.47935       .     S
C9    H1     1.10339       .     S
C9    C7     1.53116       .     S
C9    C10    1.55835       .     S
C9    N13    1.47935       .     S
C10   H4     1.09783       .     S
C10   C6     1.53825       .     S
C10   C9     1.55835       .     S
C10   N12    1.47671       .     S
C11   H5     1.09775       .     S
C11   C7     1.53825       .     S
C11   C8     1.55835       .     S
C11   N13    1.47671       .     S
N12   C7     1.49410       .     S
N12   C8     1.47935       .     S
N12   C10    1.47671       .     S
N12   Zn15   2.03975       .     S
N13   C6     1.49410       .     S
N13   C9     1.47935       .     S
N13   C11    1.47671       .     S
N13   Zn14   2.03499       .     S
Zn14  N13    2.03499       .     S
Zn14  Zn15   2.98956   1_545     S
Zn14  O30    2.32036       .     S
Zn14  O31    1.67008       .     S
Zn14  O42    1.98030       .     S
Zn14  O44    1.93492       .     S
Zn15  N12    2.03975       .     S
Zn15  Zn14   2.98956   1_565     S
Zn15  O24    2.31118   1_565     S
Zn15  O32    1.65770       .     S
Zn15  O43    1.91112   1_565     S
Zn15  O45    2.00031       .     S
H16   O26    0.99069       .     S
H17   O29    0.99059       .     D
C18   C21    1.45925       .     S
C18   O24    1.32315       .     D
C18   O31    1.30572       .     S
C19   C20    1.44762   1_455     S
C19   C21    1.34222       .     S
C19   S23    1.77054   1_545     S
C20   C19    1.44762   1_655     S
C20   O30    1.29950       .     S
C20   O32    1.32295   1_545     S
C21   C18    1.45925       .     S
C21   C19    1.34222       .     S
C21   S22    1.81051       .     S
S22   C21    1.81051       .     S
S22   O25    1.49774   1_455     S
S22   O26    1.68168       .     S
S22   O33    1.50209       .     S
S23   C19    1.77054   1_565     D
S23   O27    1.49535       .     S
S23   O28    1.50277       .     D
S23   O29    1.67863       .     S
O24   Zn15   2.31119   1_545     D
O24   C18    1.32315       .     S
O25   S22    1.49774   1_655     S
O26   H16    0.99069       .     T
O26   S22    1.68168       .     S
O27   S23    1.49535       .     T
O28   S23    1.50277       .     S
O29   H17    0.99059       .     T
O29   S23    1.67863       .     S
O30   Zn14   2.32036       .     D
O30   C20    1.29950       .     S
O31   Zn14   1.67008       .     D
O31   C18    1.30572       .     S
O32   Zn15   1.65770       .     S
O32   C20    1.32295   1_565     T
O33   S22    1.50209       .     S
C34   C37    1.45969       .     T
C34   O42    1.31543       .     S
C34   O43    1.32107       .     T
C35   C36    1.45922   1_556     S
C35   C41    1.22029       .     D
C36   C35    1.45922   1_554     S
C36   O44    1.32117       .     S
C36   O45    1.31528   1_545     S
C37   C34    1.45969       .     S
C37   C38    1.22026       .     S
C38   C37    1.22026       .     S
C38   C39    1.43594       .     S
C39   C38    1.43594       .     S
C39   C40    1.22038       .     S
C40   C39    1.22038       .     S
C40   C41    1.43598       .     S
C41   C35    1.22029       .     S
C41   C40    1.43598       .     S
O42   Zn14   1.98030       .     S
O42   C34    1.31543       .     S
O43   Zn15   1.91112   1_545     S
O43   C34    1.32107       .     S
O44   Zn14   1.93492       .     S
O44   C36    1.32117       .     S
O45   Zn15   2.00031       .     S
O45   C36    1.31528   1_565     S
