# generated using pymatgen
data_Zn2H33C47N2ClO12
_symmetry_space_group_name_H-M   'P 1'
_cell_length_a   13.22335000
_cell_length_b   13.69263000
_cell_length_c   14.22495000
_cell_angle_alpha   101.62959000
_cell_angle_beta   111.92681000
_cell_angle_gamma   98.33945000
_symmetry_Int_Tables_number   1
_chemical_formula_structural   Zn2H33C47N2ClO12
_chemical_formula_sum   'Zn2 H33 C47 N2 Cl1 O12'
_cell_volume   2270.40427361
_cell_formula_units_Z   1
loop_
 _symmetry_equiv_pos_site_id
 _symmetry_equiv_pos_as_xyz
  1  'x, y, z'
loop_
 _atom_site_type_symbol
 _atom_site_label
 _atom_site_symmetry_multiplicity
 _atom_site_fract_x
 _atom_site_fract_y
 _atom_site_fract_z
 _atom_site_occupancy
  Zn  Zn0  1  0.21935718  0.16449189  0.27061360  1
  Zn  Zn1  1  0.30909103  0.36345452  0.44519567  1
  H  H2  1  0.02246790  0.08745772  0.09532869  1
  H  H3  1  0.14894213  0.40087440  0.45407337  1
  H  H4  1  0.03667692  0.14471662  0.94601450  1
  H  H5  1  0.10914654  0.33610660  0.58876723  1
  H  H6  1  0.39443204  0.23786543  0.11571515  1
  H  H7  1  0.45914206  0.34926980  0.75039226  1
  H  H8  1  0.36217517  0.15039536  0.93069390  1
  H  H9  1  0.38713920  0.20662297  0.78722960  1
  H  H10  1  0.12869590  0.37269107  0.76399840  1
  H  H11  1  0.10088385  0.31196030  0.90519410  1
  H  H12  1  0.56437063  0.20366308  0.36620760  1
  H  H13  1  0.51386875  0.29420042  0.29597820  1
  H  H14  1  0.51201090  0.16481474  0.22657299  1
  H  H15  1  0.67442800  0.38775334  0.65469430  1
  H  H16  1  0.57118005  0.29576254  0.66443640  1
  H  H17  1  0.62572026  0.42690527  0.75424635  1
  H  H18  1  0.33653915  0.83146460  0.46565860  1
  H  H19  1  0.96863790  0.66709137  0.14675173  1
  H  H20  1  0.81766915  0.17094629  0.48904190  1
  H  H21  1  0.63459410  0.17942898  0.41890725  1
  H  H22  1  0.72532445  0.43897080  0.38029832  1
  H  H23  1  0.69797410  0.37636313  0.47028090  1
  H  H24  1  0.90743655  0.42852145  0.44524770  1
  H  H25  1  0.64922076  0.19673826  0.16049685  1
  H  H26  1  0.69606940  0.33278733  0.19846797  1
  H  H27  1  0.00420618  0.26844344  0.21719866  1
  H  H28  1  0.61627495  0.10486408  0.29215840  1
  H  H29  1  0.05176949  0.12974022  0.11457434  1
  H  H30  1  0.93081230  0.95275190  0.04554538  1
  H  H31  1  0.76050620  0.91507125  0.07909942  1
  H  H32  1  0.71113940  0.05104351  0.18162708  1
  H  H33  1  0.80058426  0.09416520  0.36550550  1
  H  H34  1  0.87707580  0.33218092  0.27424708  1
  C  C35  1  0.10430525  0.11985818  0.09975767  1
  C  C36  1  0.21696487  0.38847956  0.51856310  1
  C  C37  1  0.11240847  0.15296337  0.01532614  1
  C  C38  1  0.19465049  0.35215744  0.59582760  1
  C  C39  1  0.21813688  0.19432406  0.02020490  1
  C  C40  1  0.28202668  0.33534473  0.67978970  1
  C  C41  1  0.31365842  0.20325032  0.11187327  1
  C  C42  1  0.39077964  0.35683897  0.68313295  1
  C  C43  1  0.30308738  0.16909748  0.19684148  1
  C  C44  1  0.41052735  0.39028868  0.60158896  1
  C  C45  1  0.31077546  0.19899630  0.89493070  1
  C  C46  1  0.32546648  0.23200100  0.81280700  1
  C  C47  1  0.26131660  0.29598358  0.76409400  1
  C  C48  1  0.23014742  0.22724845  0.92999876  1
  C  C49  1  0.17914840  0.32287008  0.79824050  1
  C  C50  1  0.16332541  0.28840104  0.87960900  1
  C  C51  1  0.49987190  0.21149492  0.29335737  1
  C  C52  1  0.59924040  0.37880600  0.67229444  1
  C  C53  1  0.15998010  0.94638200  0.32929423  1
  C  C54  1  0.25984582  0.80431100  0.39335436  1
  C  C55  1  0.23254030  0.70738840  0.33281538  1
  C  C56  1  0.30864066  0.64356893  0.36589605  1
  C  C57  1  0.20162554  0.88005877  0.35955563  1
  C  C58  1  0.36428645  0.58386890  0.39179530  1
  C  C59  1  0.41129032  0.50100360  0.41873503  1
  C  C60  1  0.12417716  0.03031254  0.29306173  1
  C  C61  1  0.12612940  0.66075784  0.23577050  1
  C  C62  1  0.33601004  0.28911927  0.19987730  1
  C  C63  1  0.19025815  0.24317926  0.51140976  1
  C  C64  1  0.66791000  0.17562480  0.35735030  1
  C  C65  1  0.73120780  0.36898342  0.40856442  1
  C  C66  1  0.79156140  0.16908939  0.40464652  1
  C  C67  1  0.85550150  0.36281702  0.45483524  1
  C  C68  1  0.07805181  0.24892405  0.47155280  1
  C  C69  1  0.65889500  0.27183846  0.31612518  1
  C  C70  1  0.85360146  0.17159188  0.20798242  1
  C  C71  1  0.94957954  0.19187133  0.18717500  1
  C  C72  1  0.97728870  0.11327867  0.12920809  1
  C  C73  1  0.90929060  0.01353712  0.09044053  1
  C  C74  1  0.81346583  0.99226640  0.10958242  1
  C  C75  1  0.78576330  0.07036334  0.16814882  1
  C  C76  1  0.86738050  0.25991884  0.39383066  1
  C  C77  1  0.82830787  0.25894220  0.27503710  1
  C  C78  1  0.70312780  0.26407695  0.22889295  1
  C  C79  1  0.98297143  0.25380950  0.43719548  1
  C  C80  1  0.54345930  0.27808267  0.27408084  1
  C  C81  1  0.44833475  0.28317380  0.23999149  1
  N  N82  1  0.19813415  0.12774368  0.18736374  1
  N  N83  1  0.32249796  0.40573266  0.52187370  1
  Cl  Cl84  1  0.90640200  0.37853116  0.59453170  1
  O  O85  1  0.39324656  0.17450836  0.29045057  1
  O  O86  1  0.51596510  0.41305673  0.59977126  1
  O  O87  1  0.13215917  0.11062503  0.36113417  1
  O  O88  1  0.11214002  0.03079545  0.20056315  1
  O  O89  1  0.41003528  0.48126890  0.50190663  1
  O  O90  1  0.11631159  0.57876970  0.17557842  1
  O  O91  1  0.03613780  0.70786667  0.21415715  1
  O  O92  1  0.41469553  0.43376398  0.34495430  1
  O  O93  1  0.26292077  0.21422957  0.12259280  1
  O  O94  1  0.31104127  0.36930606  0.24186630  1
  O  O95  1  0.21518505  0.16311663  0.46921260  1
  O  O96  1  0.26330554  0.31819320  0.58848620  1
