# generated using pymatgen
data_ZnH7C21Br2N3O4
_symmetry_space_group_name_H-M   'P 1'
_cell_length_a   12.21459000
_cell_length_b   12.43406000
_cell_length_c   15.52450000
_cell_angle_alpha   99.21043000
_cell_angle_beta   104.28207000
_cell_angle_gamma   91.71008000
_symmetry_Int_Tables_number   1
_chemical_formula_structural   ZnH7C21Br2N3O4
_chemical_formula_sum   'Zn2 H14 C42 Br4 N6 O8'
_cell_volume   2249.55000797
_cell_formula_units_Z   2
loop_
 _symmetry_equiv_pos_site_id
 _symmetry_equiv_pos_as_xyz
  1  'x, y, z'
loop_
 _atom_site_type_symbol
 _atom_site_label
 _atom_site_symmetry_multiplicity
 _atom_site_fract_x
 _atom_site_fract_y
 _atom_site_fract_z
 _atom_site_occupancy
  Zn  Zn0  1  0.42639850  0.71152234  0.78973955  1
  Zn  Zn1  1  0.17924577  0.62577700  0.70030344  1
  H  H2  1  0.42363240  0.03893478  0.67593133  1
  H  H3  1  0.07577761  0.14586036  0.60731500  1
  H  H4  1  0.83314720  0.76029570  0.60089505  1
  H  H5  1  0.77524750  0.58238536  0.89330160  1
  H  H6  1  0.59749250  0.80338496  0.35457548  1
  H  H7  1  0.99383790  0.75378925  0.16927710  1
  H  H8  1  0.33406660  0.67699060  0.45541120  1
  H  H9  1  0.26731032  0.75300200  0.03159771  1
  H  H10  1  0.98165685  0.64794254  0.44798420  1
  H  H11  1  0.62013364  0.72651017  0.05204805  1
  H  H12  1  0.66280645  0.77537520  0.21657530  1
  H  H13  1  0.93308866  0.69520205  0.29584825  1
  H  H14  1  0.44718266  0.78981465  0.42778566  1
  H  H15  1  0.14106625  0.79138136  0.09817837  1
  C  C16  1  0.21296747  0.94904280  0.66216576  1
  C  C17  1  0.19385193  0.13935243  0.73802567  1
  C  C18  1  0.26170850  0.06077127  0.70647097  1
  C  C19  1  0.37369410  0.09471501  0.70858735  1
  C  C20  1  0.41663957  0.20409524  0.74264530  1
  C  C21  1  0.35391977  0.27797788  0.78630150  1
  C  C22  1  0.23905010  0.24744505  0.77516340  1
  C  C23  1  0.14261109  0.29210820  0.71357447  1
  C  C24  1  0.08873382  0.17585298  0.68089426  1
  C  C25  1  0.40164260  0.39056490  0.83007210  1
  C  C26  1  0.50930460  0.24696772  0.71279544  1
  C  C27  1  0.18277551  0.33572245  0.64290774  1
  C  C28  1  0.08150837  0.37076107  0.76245400  1
  C  C29  1  0.98862800  0.14982773  0.71293074  1
  C  C30  1  0.82329476  0.64315784  0.78332020  1
  C  C31  1  0.78510260  0.69953280  0.71087550  1
  C  C32  1  0.96634650  0.68033300  0.67542160  1
  C  C33  1  0.64205074  0.66235770  0.81877410  1
  C  C34  1  0.85821140  0.71755594  0.65722245  1
  C  C35  1  0.75018590  0.62513460  0.83697313  1
  C  C36  1  0.93380815  0.60643220  0.79990960  1
  C  C37  1  0.67458904  0.73625850  0.69428600  1
  C  C38  1  0.42358726  0.78195333  0.35514960  1
  C  C39  1  0.16738108  0.77335560  0.16560188  1
  C  C40  1  0.51075240  0.79260600  0.31373840  1
  C  C41  1  0.08130681  0.75271610  0.20654340  1
  C  C42  1  0.40963420  0.69576380  0.93496880  1
  C  C43  1  0.19813181  0.65333056  0.55813850  1
  C  C44  1  0.43854170  0.72982030  0.03264649  1
  C  C45  1  0.16273013  0.66302120  0.46272448  1
  C  C46  1  0.57538960  0.76907885  0.17748158  1
  C  C47  1  0.02140327  0.69490105  0.33125806  1
  C  C48  1  0.55122380  0.74127240  0.08396004  1
  C  C49  1  0.04883361  0.66580990  0.41698430  1
  C  C50  1  0.35153952  0.75457220  0.07429975  1
  C  C51  1  0.24760103  0.68802260  0.42198458  1
  C  C52  1  0.37244210  0.77308290  0.16835308  1
  C  C53  1  0.22256958  0.72695446  0.34053093  1
  C  C54  1  0.48671640  0.78005236  0.22016837  1
  C  C55  1  0.10774246  0.72534260  0.29259720  1
  C  C56  1  0.28283710  0.77178820  0.21163070  1
  C  C57  1  0.30985537  0.76100510  0.30358818  1
  Br  Br58  1  0.05852652  0.70988720  0.59734280  1
  Br  Br59  1  0.62053174  0.81345540  0.59571296  1
  Br  Br60  1  0.98786545  0.52923524  0.89848270  1
  Br  Br61  1  0.54987360  0.63280670  0.89686140  1
  N  N62  1  0.58146244  0.28342860  0.68752280  1
  N  N63  1  0.21941350  0.36681970  0.58872485  1
  N  N64  1  0.03346637  0.43235240  0.80084777  1
  N  N65  1  0.91002180  0.12989636  0.73814620  1
  N  N66  1  0.60543200  0.71706665  0.74831160  1
  N  N67  1  0.00296545  0.62562400  0.74588410  1
  O  O68  1  0.10830148  0.93767010  0.61476475  1
  O  O69  1  0.27797110  0.86864835  0.67312920  1
  O  O70  1  0.33620130  0.47074760  0.82002690  1
  O  O71  1  0.50593984  0.40169302  0.87841760  1
  O  O72  1  0.48504815  0.71352880  0.89271600  1
  O  O73  1  0.12415960  0.62873620  0.60044193  1
  O  O74  1  0.30709437  0.65674800  0.89270180  1
  O  O75  1  0.30211332  0.68551695  0.60045620  1
