# generated using pymatgen
data_ZnH14C21SNO13
_symmetry_space_group_name_H-M   'P 1'
_cell_length_a   9.84044000
_cell_length_b   10.73228000
_cell_length_c   20.42972000
_cell_angle_alpha   91.88879000
_cell_angle_beta   94.44833000
_cell_angle_gamma   86.21848000
_symmetry_Int_Tables_number   1
_chemical_formula_structural   ZnH14C21SNO13
_chemical_formula_sum   'Zn2 H28 C42 S2 N2 O26'
_cell_volume   2145.56639274
_cell_formula_units_Z   2
loop_
 _symmetry_equiv_pos_site_id
 _symmetry_equiv_pos_as_xyz
  1  'x, y, z'
loop_
 _atom_site_type_symbol
 _atom_site_label
 _atom_site_symmetry_multiplicity
 _atom_site_fract_x
 _atom_site_fract_y
 _atom_site_fract_z
 _atom_site_occupancy
  Zn  Zn0  1  0.28636930  0.41286644  0.45724156  1
  Zn  Zn1  1  0.59503000  0.40463700  0.47183612  1
  H  H2  1  0.53309100  0.59052724  0.92085606  1
  H  H3  1  0.30361110  0.57836634  0.90909990  1
  H  H4  1  0.53004820  0.58818084  0.02735758  1
  H  H5  1  0.30066642  0.57753900  0.01558399  1
  H  H6  1  0.54745036  0.22867969  0.02556169  1
  H  H7  1  0.37182608  0.22057489  0.01663339  1
  H  H8  1  0.55584633  0.23074731  0.91364910  1
  H  H9  1  0.37641390  0.22094403  0.90454630  1
  H  H10  1  0.13783840  0.59679055  0.08900774  1
  H  H11  1  0.93466806  0.52624860  0.13580072  1
  H  H12  1  0.84626710  0.32146612  0.10169470  1
  H  H13  1  0.96246403  0.18672441  0.01956117  1
  H  H14  1  0.16382092  0.25461835  0.97115990  1
  H  H15  1  0.67946930  0.61893120  0.11626089  1
  H  H16  1  0.89275310  0.56532470  0.18269610  1
  H  H17  1  0.03255367  0.37159230  0.15800881  1
  H  H18  1  0.95794130  0.23099208  0.06546998  1
  H  H19  1  0.74709404  0.28211483  0.99769040  1
  H  H20  1  0.08446674  0.31140915  0.82115500  1
  H  H21  1  0.82627950  0.35229185  0.85685784  1
  H  H22  1  0.06702721  0.62947030  0.39335740  1
  H  H23  1  0.80729980  0.19205472  0.54055357  1
  H  H24  1  0.86376290  0.68786550  0.41541088  1
  H  H25  1  0.01029873  0.13183226  0.51829326  1
  H  H26  1  0.14013815  0.62625850  0.36478895  1
  H  H27  1  0.64704394  0.17722034  0.52394056  1
  H  H28  1  0.00629772  0.99250330  0.40122384  1
  H  H29  1  0.66800400  0.76675910  0.64953154  1
  C  C30  1  0.45813912  0.27816415  0.92746810  1
  C  C31  1  0.45403036  0.27787697  0.00292480  1
  C  C32  1  0.44493443  0.41270760  0.83002675  1
  C  C33  1  0.43274500  0.41158852  0.10273886  1
  C  C34  1  0.43037045  0.41134414  0.16124403  1
  C  C35  1  0.42753997  0.41168370  0.23063040  1
  C  C36  1  0.45027807  0.41184780  0.70198900  1
  C  C37  1  0.55741220  0.48954546  0.01218402  1
  C  C38  1  0.29880977  0.47733450  0.99952350  1
  C  C39  1  0.30238104  0.47854817  0.92247486  1
  C  C40  1  0.55958617  0.49194705  0.93510460  1
  C  C41  1  0.44742918  0.41218780  0.77145260  1
  C  C42  1  0.43574446  0.41302177  0.03112149  1
  C  C43  1  0.44158470  0.41377550  0.90178514  1
  C  C44  1  0.16925968  0.43154836  0.02627218  1
  C  C45  1  0.10091743  0.50718950  0.07282567  1
  C  C46  1  0.98548290  0.46745354  0.09986544  1
  C  C47  1  0.93581180  0.35198388  0.08078241  1
  C  C48  1  0.00152493  0.27601305  0.03462255  1
  C  C49  1  0.11739162  0.31499097  0.00762224  1
  C  C50  1  0.69408330  0.45486224  0.05136275  1
  C  C51  1  0.73905100  0.53410230  0.10401070  1
  C  C52  1  0.86010310  0.50395966  0.14221251  1
  C  C53  1  0.93874850  0.39469862  0.12842572  1
  C  C54  1  0.89647126  0.31541255  0.07637060  1
  C  C55  1  0.77517503  0.34477130  0.03817582  1
  C  C56  1  0.17403415  0.43611932  0.88382566  1
  C  C57  1  0.69994160  0.46463922  0.90926945  1
  C  C58  1  0.02037191  0.50255370  0.45164740  1
  C  C59  1  0.85449080  0.31690118  0.48125400  1
  C  C60  1  0.87610380  0.51065500  0.43271232  1
  C  C61  1  0.99878760  0.30867058  0.50009227  1
  C  C62  1  0.58475850  0.66265535  0.46316230  1
  C  C63  1  0.28447200  0.16123962  0.47007367  1
  C  C64  1  0.36253548  0.03402746  0.46737188  1
  C  C65  1  0.50571530  0.78957800  0.46740174  1
  C  C66  1  0.38119403  0.81380385  0.42794126  1
  C  C67  1  0.47557770  0.00580347  0.51274776  1
  C  C68  1  0.31883550  0.93676030  0.42297366  1
  C  C69  1  0.55363170  0.88889927  0.51054830  1
  C  C70  1  0.31376106  0.71222115  0.38964960  1
  C  C71  1  0.50174710  0.09461558  0.56796590  1
  S  S72  1  0.19663778  0.96756960  0.35492110  1
  S  S73  1  0.70789355  0.86748080  0.56424940  1
  N  N74  1  0.79711010  0.41579178  0.44624475  1
  N  N75  1  0.07791257  0.40329686  0.48633630  1
  O  O76  1  0.53982430  0.40891156  0.26662016  1
  O  O77  1  0.31271780  0.41527253  0.25609280  1
  O  O78  1  0.56497890  0.40878466  0.67646710  1
  O  O79  1  0.33808320  0.41513965  0.66594950  1
  O  O80  1  0.06674270  0.49962872  0.88711625  1
  O  O81  1  0.17701544  0.32749262  0.84407420  1
  O  O82  1  0.78816646  0.53865033  0.92227876  1
  O  O83  1  0.72914433  0.35787418  0.87048703  1
  O  O84  1  0.10565925  0.59106180  0.43468857  1
  O  O85  1  0.76895840  0.22913790  0.49882210  1
  O  O86  1  0.81195724  0.61385590  0.40246400  1
  O  O87  1  0.06275868  0.20571138  0.53065640  1
  O  O88  1  0.15254377  0.16194224  0.46301222  1
  O  O89  1  0.71699214  0.66203930  0.46884635  1
  O  O90  1  0.51987610  0.56018610  0.45004427  1
  O  O91  1  0.34965968  0.26379550  0.48181420  1
  O  O92  1  0.37672168  0.64714040  0.35103220  1
  O  O93  1  0.17537455  0.69598180  0.39486400  1
  O  O94  1  0.44245735  0.08533180  0.61769230  1
  O  O95  1  0.59648270  0.18538558  0.56524220  1
  O  O96  1  0.18750703  0.10241735  0.33907312  1
  O  O97  1  0.23901972  0.89486957  0.29489422  1
  O  O98  1  0.04128406  0.92603150  0.37113163  1
  O  O99  1  0.82988700  0.85325986  0.52434397  1
  O  O100  1  0.73153960  0.97347610  0.61279290  1
  O  O101  1  0.70331424  0.73804400  0.60711414  1
