# generated using pymatgen
data_CuH6C32N10O14F3
_symmetry_space_group_name_H-M   'P 1'
_cell_length_a   17.11202000
_cell_length_b   17.75421000
_cell_length_c   25.45971000
_cell_angle_alpha   92.39606000
_cell_angle_beta   91.60252000
_cell_angle_gamma   77.04247000
_symmetry_Int_Tables_number   1
_chemical_formula_structural   CuH6C32N10O14F3
_chemical_formula_sum   'Cu2 H12 C64 N20 O28 F6'
_cell_volume   7530.00327536
_cell_formula_units_Z   2
loop_
 _symmetry_equiv_pos_site_id
 _symmetry_equiv_pos_as_xyz
  1  'x, y, z'
loop_
 _atom_site_type_symbol
 _atom_site_label
 _atom_site_symmetry_multiplicity
 _atom_site_fract_x
 _atom_site_fract_y
 _atom_site_fract_z
 _atom_site_occupancy
  Cu  Cu0  1  0.46603343  0.36262780  0.76596785  1
  Cu  Cu1  1  0.55090654  0.22867352  0.72581110  1
  H  H2  1  0.74646586  0.33648458  0.80171380  1
  H  H3  1  0.26278660  0.25906456  0.68721290  1
  H  H4  1  0.88797530  0.33548720  0.80613950  1
  H  H5  1  0.12128340  0.26007694  0.68277300  1
  H  H6  1  0.08304249  0.40172940  0.82547970  1
  H  H7  1  0.92619390  0.19384627  0.66342854  1
  H  H8  1  0.68913540  0.34929260  0.19250214  1
  H  H9  1  0.40097487  0.14719051  0.28175366  1
  H  H10  1  0.61216410  0.26624852  0.02493532  1
  H  H11  1  0.56535417  0.34019813  0.44000247  1
  H  H12  1  0.36898217  0.36474088  0.06889933  1
  H  H13  1  0.57856780  0.09560539  0.42694542  1
  C  C14  1  0.34082612  0.32607064  0.76003370  1
  C  C15  1  0.66842544  0.26948282  0.72889435  1
  C  C16  1  0.25572574  0.32849607  0.75977350  1
  C  C17  1  0.75352480  0.26706144  0.72914827  1
  C  C18  1  0.22456147  0.28988728  0.71802896  1
  C  C19  1  0.78468900  0.30567020  0.77089274  1
  C  C20  1  0.14379735  0.29082158  0.71536140  1
  C  C21  1  0.86546180  0.30474052  0.77355420  1
  C  C22  1  0.09296252  0.33022702  0.75487316  1
  C  C23  1  0.91628360  0.26534920  0.73403530  1
  C  C24  1  0.12294181  0.37178898  0.79522276  1
  C  C25  1  0.88629514  0.22378467  0.69368863  1
  C  C26  1  0.20472568  0.37018389  0.79898870  1
  C  C27  1  0.80452290  0.22538194  0.68992800  1
  C  C28  1  0.57607424  0.14435910  0.50566420  1
  C  C29  1  0.41465830  0.35246167  0.03913056  1
  C  C30  1  0.57607670  0.14769803  0.45124897  1
  C  C31  1  0.49255440  0.31265843  0.05235595  1
  C  C32  1  0.57192826  0.21812236  0.42760652  1
  C  C33  1  0.43717352  0.38531783  0.89614946  1
  C  C34  1  0.58098570  0.20745729  0.59411290  1
  C  C35  1  0.55219790  0.29774264  0.01453130  1
  C  C36  1  0.56968623  0.28556758  0.45864618  1
  C  C37  1  0.53517634  0.32384860  0.96390170  1
  C  C38  1  0.50762200  0.19739471  0.34442458  1
  C  C39  1  0.57115000  0.31426236  0.13235703  1
  C  C40  1  0.62319696  0.25206950  0.34658660  1
  C  C41  1  0.46763846  0.24344307  0.12749890  1
  C  C42  1  0.61509013  0.26509976  0.29222447  1
  C  C43  1  0.47839853  0.22686194  0.18127215  1
  C  C44  1  0.55220455  0.24028675  0.26397228  1
  C  C45  1  0.53993934  0.25347470  0.20982280  1
  C  C46  1  0.50019240  0.20380308  0.29003158  1
  C  C47  1  0.57314450  0.28276488  0.51321600  1
  C  C48  1  0.58823140  0.29493707  0.18459850  1
  C  C49  1  0.66580766  0.30312675  0.26520404  1
  C  C50  1  0.42947660  0.18643210  0.20789410  1
  C  C51  1  0.65112860  0.31836870  0.21219680  1
  C  C52  1  0.44026834  0.17639254  0.26177344  1
  C  C53  1  0.73186340  0.33016008  0.29022396  1
  C  C54  1  0.36560890  0.15647049  0.18238850  1
  C  C55  1  0.45615858  0.36248097  0.95014430  1
  C  C56  1  0.59958780  0.30858135  0.92663115  1
  C  C57  1  0.57222210  0.35337720  0.54381800  1
  C  C58  1  0.31418017  0.41572824  0.97575260  1
  C  C59  1  0.57836974  0.07038515  0.52810556  1
  C  C60  1  0.57565250  0.21202436  0.53708820  1
  C  C61  1  0.39560810  0.37611485  0.98802860  1
  C  C62  1  0.56822765  0.49528600  0.73669845  1
  C  C63  1  0.44530870  0.09938240  0.75223990  1
  C  C64  1  0.56859237  0.57388470  0.73009986  1
  C  C65  1  0.44503560  0.02075517  0.75882800  1
  C  C66  1  0.51775090  0.63242410  0.75927496  1
  C  C67  1  0.49606857  0.96225230  0.72974867  1
  C  C68  1  0.46642527  0.61045320  0.79434910  1
  C  C69  1  0.54749500  0.98426760  0.69478260  1
  C  C70  1  0.46704772  0.53167766  0.80059280  1
  C  C71  1  0.54680910  0.06307054  0.68855345  1
  C  C72  1  0.53334840  0.76556253  0.79360310  1
  C  C73  1  0.48045367  0.82910705  0.69537616  1
  C  C74  1  0.52449180  0.84553266  0.78593710  1
  C  C75  1  0.48930812  0.74913850  0.70305030  1
  C  C76  1  0.49850595  0.87810460  0.73722124  1
  C  C77  1  0.51532215  0.71656555  0.75177014  1
  N  N78  1  0.01182441  0.32689038  0.75634570  1
  N  N79  1  0.99742170  0.26868585  0.73256280  1
  N  N80  1  0.23504283  0.40690356  0.84404700  1
  N  N81  1  0.77419600  0.18866175  0.64486945  1
  N  N82  1  0.56803350  0.22178406  0.37150517  1
  N  N83  1  0.65117943  0.29646075  0.89683460  1
  N  N84  1  0.57161015  0.40989190  0.56832075  1
  N  N85  1  0.24893638  0.44734806  0.96588500  1
  N  N86  1  0.58007940  0.01118912  0.54604614  1
  N  N87  1  0.51150170  0.28885150  0.10510707  1
  N  N88  1  0.78481180  0.35193402  0.31004047  1
  N  N89  1  0.31440818  0.13237411  0.16219560  1
  N  N90  1  0.51918960  0.47387105  0.77288070  1
  N  N91  1  0.49451882  0.12086153  0.71618540  1
  N  N92  1  0.40733588  0.51462100  0.83327097  1
  N  N93  1  0.60653675  0.08015168  0.65590230  1
  N  N94  1  0.56256860  0.73460530  0.84358850  1
  N  N95  1  0.45120210  0.86007440  0.64537860  1
  N  N96  1  0.61738527  0.43902870  0.70276314  1
  N  N97  1  0.39567690  0.15561080  0.78596890  1
  O  O98  1  0.36635447  0.38457268  0.77762460  1
  O  O99  1  0.64289707  0.21098079  0.71130350  1
  O  O100  1  0.38906625  0.26658553  0.74049120  1
  O  O101  1  0.62018526  0.32896790  0.74843687  1
  O  O102  1  0.19329384  0.47181470  0.86379683  1
  O  O103  1  0.29681860  0.36965728  0.87055200  1
  O  O104  1  0.81594450  0.12375262  0.62511630  1
  O  O105  1  0.71241915  0.22591463  0.61837030  1
  O  O106  1  0.61263907  0.35975856  0.10921848  1
  O  O107  1  0.68517940  0.26945037  0.37473777  1
  O  O108  1  0.41392112  0.21500109  0.09751330  1
  O  O109  1  0.37933484  0.36238158  0.87122690  1
  O  O110  1  0.63728330  0.23245595  0.61937743  1
  O  O111  1  0.53346970  0.17264894  0.61699920  1
  O  O112  1  0.48314857  0.42218858  0.87360520  1
  O  O113  1  0.45364818  0.16860735  0.37035277  1
  O  O114  1  0.42779730  0.48181170  0.87774340  1
  O  O115  1  0.33257540  0.54825060  0.82477546  1
  O  O116  1  0.58609340  0.11293781  0.61142147  1
  O  O117  1  0.68130050  0.04653621  0.66441983  1
  O  O118  1  0.54185370  0.77456707  0.88699687  1
  O  O119  1  0.61390555  0.66847830  0.84590006  1
  O  O120  1  0.40038568  0.92650676  0.64304286  1
  O  O121  1  0.47126645  0.81983715  0.60200214  1
  O  O122  1  0.69452405  0.43333232  0.70400310  1
  O  O123  1  0.58511630  0.41415516  0.66059620  1
  O  O124  1  0.42763337  0.18158424  0.82786470  1
  O  O125  1  0.31867950  0.16048372  0.78486454  1
  F  F126  1  0.41414090  0.66579570  0.82208130  1
  F  F127  1  0.59989340  0.92894983  0.66711086  1
  F  F128  1  0.54527560  0.89143250  0.82550097  1
  F  F129  1  0.46847036  0.70322580  0.66351116  1
  F  F130  1  0.61797280  0.59287280  0.69448227  1
  F  F131  1  0.39552160  0.00169086  0.79432140  1
