# generated using pymatgen
data_CuH39C53Br(NO4)3
_symmetry_space_group_name_H-M   'P 1'
_cell_length_a   18.10509000
_cell_length_b   22.29476000
_cell_length_c   32.58294000
_cell_angle_alpha   85.90724000
_cell_angle_beta   91.00374000
_cell_angle_gamma   82.58782000
_symmetry_Int_Tables_number   1
_chemical_formula_structural   CuH39C53Br(NO4)3
_chemical_formula_sum   'Cu2 H78 C106 Br2 N6 O24'
_cell_volume   13004.14821704
_cell_formula_units_Z   2
loop_
 _symmetry_equiv_pos_site_id
 _symmetry_equiv_pos_as_xyz
  1  'x, y, z'
loop_
 _atom_site_type_symbol
 _atom_site_label
 _atom_site_symmetry_multiplicity
 _atom_site_fract_x
 _atom_site_fract_y
 _atom_site_fract_z
 _atom_site_occupancy
  Cu  Cu0  1  0.60157216  0.41693910  0.93482494  1
  Cu  Cu1  1  0.73496640  0.35169473  0.92860943  1
  H  H2  1  0.48442248  0.20971394  0.97889780  1
  H  H3  1  0.57948690  0.94284310  0.83444480  1
  H  H4  1  0.72399410  0.93624590  0.02790904  1
  H  H5  1  0.61423624  0.83385813  0.83439220  1
  H  H6  1  0.75797385  0.82715650  0.02805376  1
  H  H7  1  0.66457820  0.53371423  0.95006806  1
  H  H8  1  0.88591550  0.56157130  0.91260670  1
  H  H9  1  0.64015466  0.23717976  0.88319886  1
  H  H10  1  0.78876513  0.06716991  0.88576990  1
  H  H11  1  0.75350976  0.09268367  0.93309510  1
  H  H12  1  0.81161314  0.17259836  0.86217240  1
  H  H13  1  0.77688557  0.19924927  0.91006756  1
  H  H14  1  0.87758607  0.13013744  0.94912577  1
  H  H15  1  0.91548770  0.18009901  0.91150457  1
  H  H16  1  0.91249750  0.10210884  0.90133320  1
  H  H17  1  0.44892234  0.02066767  0.97653250  1
  H  H18  1  0.46308908  0.06215000  0.92915857  1
  H  H19  1  0.36494090  0.10943902  0.99998330  1
  H  H20  1  0.37785527  0.15194547  0.95202273  1
  H  H21  1  0.32311642  0.07506859  0.91311395  1
  H  H22  1  0.25981846  0.10580778  0.95066690  1
  H  H23  1  0.31085223  0.03125644  0.96097990  1
  H  H24  1  0.19846782  0.46547590  0.97685430  1
  H  H25  1  0.13884981  0.30476340  0.88864560  1
  H  H26  1  0.26534563  0.33411220  0.88937384  1
  H  H27  1  0.07082658  0.43867084  0.97422960  1
  H  H28  1  0.50093305  0.36006690  0.95706630  1
  H  H29  1  0.88660866  0.29818484  0.99225396  1
  H  H30  1  0.41770120  0.53923875  0.91605866  1
  H  H31  1  0.86998250  0.34529470  0.86446756  1
  H  H32  1  0.42328364  0.27900577  0.96694696  1
  H  H33  1  0.99479556  0.30911025  0.03457522  1
  H  H34  1  0.28579554  0.57441396  0.90288186  1
  H  H35  1  0.97055763  0.37999370  0.82496977  1
  H  H36  1  0.79390580  0.33180610  0.14185336  1
  H  H37  1  0.54475534  0.45170543  0.71975636  1
  H  H38  1  0.77328830  0.36637884  0.73124400  1
  H  H39  1  0.55861760  0.39604977  0.13183974  1
  H  H40  1  0.77646490  0.36149225  0.65635735  1
  H  H41  1  0.55476105  0.39993490  0.20673065  1
  H  H42  1  0.57758360  0.27167480  0.54244450  1
  H  H43  1  0.68429005  0.52355660  0.31764810  1
  H  H44  1  0.58318794  0.26317343  0.46925697  1
  H  H45  1  0.68956210  0.52812640  0.39126560  1
  H  H46  1  0.87083690  0.27254516  0.18992768  1
  H  H47  1  0.79580610  0.23913309  0.21626596  1
  H  H48  1  0.87514810  0.25634710  0.24450415  1
  H  H49  1  0.58179945  0.52936417  0.61770535  1
  H  H50  1  0.52230250  0.53758080  0.66224600  1
  H  H51  1  0.48273394  0.53230680  0.61201660  1
  H  H52  1  0.47426322  0.17214021  0.31990507  1
  H  H53  1  0.53752290  0.11269124  0.34758997  1
  H  H54  1  0.45398057  0.14518394  0.37145892  1
  H  H55  1  0.56272470  0.18524925  0.39955762  1
  H  H56  1  0.50219685  0.24489157  0.37123418  1
  H  H57  1  0.57915090  0.23048694  0.30989707  1
  H  H58  1  0.64692400  0.17652111  0.33807194  1
  H  H59  1  0.65807796  0.66820680  0.53434086  1
  H  H60  1  0.75014420  0.67286900  0.51436690  1
  H  H61  1  0.66845570  0.69960670  0.48250398  1
  H  H62  1  0.72439516  0.60146820  0.46129940  1
  H  H63  1  0.63534385  0.59409570  0.48336086  1
  H  H64  1  0.69845724  0.55912700  0.55048156  1
  H  H65  1  0.78887160  0.55739840  0.52854830  1
  H  H66  1  0.78234710  0.14202286  0.48465437  1
  H  H67  1  0.81720877  0.11912335  0.43560368  1
  H  H68  1  0.87193364  0.15999849  0.46793940  1
  H  H69  1  0.81162620  0.22844912  0.41002485  1
  H  H70  1  0.77742344  0.25075728  0.45901316  1
  H  H71  1  0.66454250  0.19689295  0.44757473  1
  H  H72  1  0.70164263  0.17283103  0.40116176  1
  H  H73  1  0.92462707  0.49662290  0.39225638  1
  H  H74  1  0.96398515  0.49206308  0.44408940  1
  H  H75  1  0.97825330  0.42725018  0.41367000  1
  H  H76  1  0.88196660  0.41393712  0.46586150  1
  H  H77  1  0.84397453  0.41774535  0.41411534  1
  H  H78  1  0.79545546  0.52848470  0.41987905  1
  H  H79  1  0.83726770  0.52448404  0.46924976  1
  C  C80  1  0.67887753  0.85342470  0.93121330  1
  C  C81  1  0.68348753  0.76030266  0.89697120  1
  C  C82  1  0.73373610  0.75786185  0.96553516  1
  C  C83  1  0.68566740  0.62596333  0.94180330  1
  C  C84  1  0.81050590  0.64165384  0.92080903  1
  C  C85  1  0.70552800  0.56353550  0.94178563  1
  C  C86  1  0.83001470  0.57917920  0.92087257  1
  C  C87  1  0.73819673  0.66519330  0.93128955  1
  C  C88  1  0.63561210  0.14474821  0.90492934  1
  C  C89  1  0.54351455  0.12899625  0.95724744  1
  C  C90  1  0.61357725  0.20709372  0.90401550  1
  C  C91  1  0.52617600  0.19164062  0.95810820  1
  C  C92  1  0.56003470  0.23060954  0.93104690  1
  C  C93  1  0.79840530  0.47412112  0.93137040  1
  C  C94  1  0.65509456  0.00984812  0.96524876  1
  C  C95  1  0.60337216  0.01209176  0.89703800  1
  C  C96  1  0.59952414  0.10527158  0.93110340  1
  C  C97  1  0.62291247  0.94935320  0.89628680  1
  C  C98  1  0.67513025  0.94697420  0.96605664  1
  C  C99  1  0.65895890  0.91663694  0.93118660  1
  C  C100  1  0.53946400  0.29589080  0.93101930  1
  C  C101  1  0.60716270  0.91867566  0.86163990  1
  C  C102  1  0.71097950  0.91392404  0.00073338  1
  C  C103  1  0.77771490  0.53978240  0.93134260  1
  C  C104  1  0.62709194  0.85615885  0.86160475  1
  C  C105  1  0.73046860  0.85134655  0.00082147  1
  C  C106  1  0.66296140  0.82311400  0.89625436  1
  C  C107  1  0.71466590  0.82067130  0.96619910  1
  C  C108  1  0.75867057  0.10691047  0.89984080  1
  C  C109  1  0.80541134  0.15945768  0.89535826  1
  C  C110  1  0.88248277  0.14165771  0.91563030  1
  C  C111  1  0.45187995  0.06711566  0.96239820  1
  C  C112  1  0.37645784  0.10565531  0.96680850  1
  C  C113  1  0.31383145  0.07754946  0.94659626  1
  C  C114  1  0.45353186  0.39292505  0.94756380  1
  C  C115  1  0.91133064  0.31483278  0.96448470  1
  C  C116  1  0.40678160  0.49350634  0.92439620  1
  C  C117  1  0.90197253  0.34125950  0.89303803  1
  C  C118  1  0.38135840  0.37578222  0.94821817  1
  C  C119  1  0.98510190  0.32848140  0.96641920  1
  C  C120  1  0.33354408  0.47888740  0.92163030  1
  C  C121  1  0.97359496  0.35955320  0.89307570  1
  C  C122  1  0.31945145  0.41900980  0.93434630  1
  C  C123  1  0.01730871  0.35239872  0.93026320  1
  C  C124  1  0.18583117  0.43069133  0.95725530  1
  C  C125  1  0.15118015  0.34021790  0.90773964  1
  C  C126  1  0.22341196  0.35687503  0.90822980  1
  C  C127  1  0.11305032  0.41527477  0.95585030  1
  C  C128  1  0.09494355  0.36952420  0.93130620  1
  C  C129  1  0.24179690  0.40199763  0.93323190  1
  C  C130  1  0.37446490  0.31303826  0.96493906  1
  C  C131  1  0.02585227  0.31487918  0.00667536  1
  C  C132  1  0.27531096  0.52746075  0.90406850  1
  C  C133  1  0.99817560  0.38739562  0.85367197  1
  C  C134  1  0.66958510  0.37478942  0.34572770  1
  C  C135  1  0.67060140  0.39282066  0.51723170  1
  C  C136  1  0.65702970  0.32030478  0.32861382  1
  C  C137  1  0.69738030  0.44234258  0.53483270  1
  C  C138  1  0.64510090  0.26931557  0.35544790  1
  C  C139  1  0.72509944  0.48773855  0.50857490  1
  C  C140  1  0.67589560  0.42721516  0.31975560  1
  C  C141  1  0.63755554  0.34987175  0.54222745  1
  C  C142  1  0.67667600  0.36287716  0.13137350  1
  C  C143  1  0.65870420  0.40951810  0.73121940  1
  C  C144  1  0.65163090  0.33534008  0.45736220  1
  C  C145  1  0.69089250  0.43137214  0.40570864  1
  C  C146  1  0.70284736  0.43173224  0.44880828  1
  C  C147  1  0.66296524  0.32677540  0.41510610  1
  C  C148  1  0.67481095  0.38681945  0.47442860  1
  C  C149  1  0.67411333  0.37764700  0.38886982  1
  C  C150  1  0.61280894  0.29664186  0.48229828  1
  C  C151  1  0.68967867  0.48418435  0.37931547  1
  C  C152  1  0.60685647  0.30316746  0.52424175  1
  C  C153  1  0.68344593  0.48200968  0.33690660  1
  C  C154  1  0.67946800  0.36069822  0.08631434  1
  C  C155  1  0.65610147  0.41213240  0.77623330  1
  C  C156  1  0.66273594  0.26995840  0.39792913  1
  C  C157  1  0.74066040  0.47533914  0.46735835  1
  C  C158  1  0.66240350  0.31818786  0.28536720  1
  C  C159  1  0.69954675  0.44195673  0.57836300  1
  C  C160  1  0.67315656  0.42389998  0.27706700  1
  C  C161  1  0.63414085  0.35558540  0.58463730  1
  C  C162  1  0.60684216  0.38440704  0.19265406  1
  C  C163  1  0.72612870  0.38157110  0.67020327  1
  C  C164  1  0.60935400  0.38228974  0.15007263  1
  C  C165  1  0.72399580  0.38432112  0.71278750  1
  C  C166  1  0.74135965  0.34523764  0.15605599  1
  C  C167  1  0.59586310  0.43243600  0.70624510  1
  C  C168  1  0.73876310  0.34583497  0.19916001  1
  C  C169  1  0.59836350  0.43090400  0.66339750  1
  C  C170  1  0.67125010  0.36669776  0.21714900  1
  C  C171  1  0.66337895  0.40433234  0.64547660  1
  C  C172  1  0.83674276  0.27223873  0.21792419  1
  C  C173  1  0.53129190  0.51555430  0.63282670  1
  C  C174  1  0.60598000  0.21761480  0.34057742  1
  C  C175  1  0.54163080  0.20293148  0.36831632  1
  C  C176  1  0.49935700  0.15525436  0.35058847  1
  C  C177  1  0.72991040  0.55151320  0.52209884  1
  C  C178  1  0.69359124  0.60172504  0.49039490  1
  C  C179  1  0.69259550  0.66442674  0.50656070  1
  C  C180  1  0.69792430  0.21094328  0.42143548  1
  C  C181  1  0.77773565  0.21551192  0.43657488  1
  C  C182  1  0.81440175  0.15530415  0.45746619  1
  C  C183  1  0.80936350  0.49765292  0.44772930  1
  C  C184  1  0.86718830  0.44440260  0.43759040  1
  C  C185  1  0.93783710  0.46668708  0.42087290  1
  Br  Br186  1  0.58663770  0.65649550  0.95651660  1
  Br  Br187  1  0.88347470  0.69386464  0.90606060  1
  N  N188  1  0.71799860  0.72929215  0.93126243  1
  N  N189  1  0.61978380  0.04093909  0.93113080  1
  N  N190  1  0.46503030  0.45079613  0.93639946  1
  N  N191  1  0.87136820  0.32038423  0.92829360  1
  N  N192  1  0.66793203  0.36980100  0.26088834  1
  N  N193  1  0.66564840  0.40060315  0.60177050  1
  O  O194  1  0.67125680  0.03987861  0.99810610  1
  O  O195  1  0.56767140  0.04406953  0.86416120  1
  O  O196  1  0.66919005  0.73032385  0.86377670  1
  O  O197  1  0.76769483  0.72546345  0.99875253  1
  O  O198  1  0.86758715  0.45215850  0.92999965  1
  O  O199  1  0.74721690  0.43901756  0.93275840  1
  O  O200  1  0.52649426  0.32770693  0.89658815  1
  O  O201  1  0.53457740  0.32074165  0.96542645  1
  O  O202  1  0.68945220  0.12254632  0.87832830  1
  O  O203  1  0.50856847  0.09127951  0.98388684  1
  O  O204  1  0.31600705  0.29899790  0.97827196  1
  O  O205  1  0.09379454  0.30730432  0.00926530  1
  O  O206  1  0.21684924  0.51604897  0.88917920  1
  O  O207  1  0.04661010  0.42077208  0.85264933  1
  O  O208  1  0.74137130  0.33891436  0.07002801  1
  O  O209  1  0.59421563  0.43396148  0.79251950  1
  O  O210  1  0.61980605  0.37999130  0.06389647  1
  O  O211  1  0.71578085  0.39288460  0.79865104  1
  O  O212  1  0.66657130  0.26488853  0.26786953  1
  O  O213  1  0.73824830  0.48012050  0.59750617  1
  O  O214  1  0.60084784  0.31583768  0.60878260  1
  O  O215  1  0.67752177  0.47396648  0.25183582  1
  O  O216  1  0.80222535  0.33122277  0.22419506  1
  O  O217  1  0.53586215  0.45195198  0.63905570  1
