# generated using pymatgen
data_Zn4H34C82N8O37
_symmetry_space_group_name_H-M   'P 1'
_cell_length_a   20.34927000
_cell_length_b   20.92290000
_cell_length_c   30.90341000
_cell_angle_alpha   97.31591000
_cell_angle_beta   93.15102000
_cell_angle_gamma   63.40047000
_symmetry_Int_Tables_number   1
_chemical_formula_structural   Zn4H34C82N8O37
_chemical_formula_sum   'Zn4 H34 C82 N8 O37'
_cell_volume   11669.17552690
_cell_formula_units_Z   1
loop_
 _symmetry_equiv_pos_site_id
 _symmetry_equiv_pos_as_xyz
  1  'x, y, z'
loop_
 _atom_site_type_symbol
 _atom_site_label
 _atom_site_symmetry_multiplicity
 _atom_site_fract_x
 _atom_site_fract_y
 _atom_site_fract_z
 _atom_site_occupancy
  Zn  Zn0  1  0.19793838  0.25418746  0.88183100  1
  Zn  Zn1  1  0.10415444  0.43532208  0.87667460  1
  Zn  Zn2  1  0.05708267  0.36371708  0.94554730  1
  Zn  Zn3  1  0.01692628  0.33972904  0.83785640  1
  H  H4  1  0.83067860  0.38566800  0.80170834  1
  H  H5  1  0.61199194  0.14653246  0.88894475  1
  H  H6  1  0.58280510  0.23461759  0.83882830  1
  H  H7  1  0.57201520  0.50785005  0.85278726  1
  H  H8  1  0.59418553  0.35149790  0.96202224  1
  H  H9  1  0.64067520  0.41945836  0.92515440  1
  H  H10  1  0.47827128  0.34843360  0.96507360  1
  H  H11  1  0.40541142  0.29569843  0.99125590  1
  H  H12  1  0.53759170  0.09400180  0.91419494  1
  H  H13  1  0.77298620  0.31544387  0.82431860  1
  H  H14  1  0.43586892  0.99534460  0.80118495  1
  H  H15  1  0.70001910  0.68814236  0.87395114  1
  H  H16  1  0.30598146  0.07486546  0.81488790  1
  H  H17  1  0.81665206  0.58789090  0.88968444  1
  H  H18  1  0.58548945  0.98554760  0.89694350  1
  H  H19  1  0.62952350  0.75424110  0.80885940  1
  H  H20  1  0.71016836  0.88700660  0.89088094  1
  H  H21  1  0.50423540  0.85165180  0.81707287  1
  H  H22  1  0.17050041  0.23371834  0.13886139  1
  H  H23  1  0.22569753  0.30398720  0.62262577  1
  H  H24  1  0.05271965  0.20608836  0.26443210  1
  H  H25  1  0.18184757  0.45041835  0.50461894  1
  H  H26  1  0.06829864  0.19161236  0.33982350  1
  H  H27  1  0.19572349  0.44258034  0.42808843  1
  H  H28  1  0.11449651  0.15887120  0.40002158  1
  H  H29  1  0.23865768  0.40820488  0.36476770  1
  H  H30  1  0.96221620  0.32424800  0.71298194  1
  H  H31  1  0.98359660  0.51207185  0.06245435  1
  H  H32  1  0.93566370  0.34931220  0.60547350  1
  H  H33  1  0.96996444  0.52585430  0.17249882  1
  H  H34  1  0.10004053  0.11811361  0.45926318  1
  H  H35  1  0.25900430  0.44463003  0.30531898  1
  H  H36  1  0.18715382  0.19337068  0.06721099  1
  H  H37  1  0.27068403  0.29904267  0.69020635  1
  C  C38  1  0.41085586  0.16493590  0.96190715  1
  C  C39  1  0.73454600  0.48898643  0.81406790  1
  C  C40  1  0.65964020  0.52328694  0.82695580  1
  C  C41  1  0.62834454  0.48200527  0.84124440  1
  C  C42  1  0.66922283  0.40748018  0.84089300  1
  C  C43  1  0.74095000  0.37310997  0.82465710  1
  C  C44  1  0.77340680  0.41346530  0.81141746  1
  C  C45  1  0.62363720  0.31264704  0.83596340  1
  C  C46  1  0.59741520  0.27365038  0.85770196  1
  C  C47  1  0.58560590  0.28767174  0.90305394  1
  C  C48  1  0.60197294  0.34025326  0.92699540  1
  C  C49  1  0.62810390  0.37923604  0.90594596  1
  C  C50  1  0.63875973  0.36630052  0.86064260  1
  C  C51  1  0.49338207  0.29214278  0.95487463  1
  C  C52  1  0.45142704  0.26194835  0.96977020  1
  C  C53  1  0.52536255  0.14901915  0.92643976  1
  C  C54  1  0.56754940  0.17918658  0.91169280  1
  C  C55  1  0.55011976  0.25183660  0.92446935  1
  C  C56  1  0.46513200  0.19099778  0.95430773  1
  C  C57  1  0.77675730  0.53001390  0.81041400  1
  C  C58  1  0.95077490  0.57678777  0.88030005  1
  C  C59  1  0.23659083  0.11774445  0.89036480  1
  C  C60  1  0.35841596  0.03687537  0.91960000  1
  C  C61  1  0.88269377  0.69815534  0.85637320  1
  C  C62  1  0.43344194  0.99141854  0.91155940  1
  C  C63  1  0.81583830  0.75477880  0.84553456  1
  C  C64  1  0.46113142  0.97696716  0.86863047  1
  C  C65  1  0.74960910  0.75141620  0.85258555  1
  C  C66  1  0.41482940  0.00697780  0.83419704  1
  C  C67  1  0.75068027  0.69084920  0.86811530  1
  C  C68  1  0.34106090  0.05120122  0.84192870  1
  C  C69  1  0.81667830  0.63452060  0.87792990  1
  C  C70  1  0.31280210  0.06636834  0.88422380  1
  C  C71  1  0.88226650  0.63865465  0.87316610  1
  C  C72  1  0.59509840  0.93535430  0.87742610  1
  C  C73  1  0.62035924  0.80498420  0.82754904  1
  C  C74  1  0.66590744  0.87980120  0.87339380  1
  C  C75  1  0.54944190  0.86020910  0.83212490  1
  C  C76  1  0.67841440  0.81374610  0.84943600  1
  C  C77  1  0.53652140  0.92432916  0.85844670  1
  C  C78  1  0.14451239  0.30695740  0.47459462  1
  C  C79  1  0.14084764  0.31134290  0.29268333  1
  C  C80  1  0.12751680  0.25758700  0.49295306  1
  C  C81  1  0.16776381  0.35335517  0.27403920  1
  C  C82  1  0.11846881  0.20289458  0.46540490  1
  C  C83  1  0.20501298  0.38671848  0.30051044  1
  C  C84  1  0.15435119  0.36124600  0.50198690  1
  C  C85  1  0.10468099  0.27689737  0.26623760  1
  C  C86  1  0.10077390  0.32810870  0.70004280  1
  C  C87  1  0.08751703  0.36558494  0.07252871  1
  C  C88  1  0.12483559  0.25952274  0.35586670  1
  C  C89  1  0.17173216  0.35022660  0.41094866  1
  C  C90  1  0.17722770  0.34599674  0.36510610  1
  C  C91  1  0.13231312  0.25398356  0.40125147  1
  C  C92  1  0.14836490  0.30503190  0.33793533  1
  C  C93  1  0.15021114  0.30322608  0.42882633  1
  C  C94  1  0.09108174  0.22386833  0.32809883  1
  C  C95  1  0.18335679  0.40254210  0.43948355  1
  C  C96  1  0.08069482  0.23298387  0.28418252  1
  C  C97  1  0.17412850  0.40825734  0.48413652  1
  C  C98  1  0.09878730  0.32309657  0.74743754  1
  C  C99  1  0.08649854  0.37425890  0.02625898  1
  C  C100  1  0.12068424  0.20193568  0.42007473  1
  C  C101  1  0.20904946  0.38285798  0.34557402  1
  C  C102  1  0.11969449  0.26511556  0.53857850  1
  C  C103  1  0.15555012  0.36118360  0.22931665  1
  C  C104  1  0.14233784  0.36853606  0.54678017  1
  C  C105  1  0.09126456  0.28892633  0.22249193  1
  C  C106  1  0.17347561  0.31604725  0.63703880  1
  C  C107  1  0.13604400  0.28643683  0.12885472  1
  C  C108  1  0.16819854  0.31649485  0.68177986  1
  C  C109  1  0.12829682  0.29595062  0.08479207  1
  C  C110  1  0.03754576  0.34476623  0.67282945  1
  C  C111  1  0.05165927  0.42530670  0.10435318  1
  C  C112  1  0.04368868  0.34668360  0.62757117  1
  C  C113  1  0.05386442  0.41366330  0.14870971  1
  C  C114  1  0.11295911  0.32967827  0.61005830  1
  C  C115  1  0.10019781  0.34413296  0.16058129  1
  C  C116  1  0.96558243  0.35928580  0.69117360  1
  C  C117  1  0.01715654  0.49952640  0.09142216  1
  C  C118  1  0.97883743  0.36329210  0.59824230  1
  C  C119  1  0.00488139  0.47267550  0.18159380  1
  N  N120  1  0.63205767  0.29867107  0.78919876  1
  N  N121  1  0.61494990  0.59912395  0.82562560  1
  N  N122  1  0.32869210  0.05136168  0.96296376  1
  N  N123  1  0.95081043  0.69823503  0.84676725  1
  N  N124  1  0.47970770  0.95502180  0.94595870  1
  N  N125  1  0.81530035  0.81482140  0.82713400  1
  N  N126  1  0.12433671  0.32148302  0.56395040  1
  N  N127  1  0.11539173  0.33159807  0.20531668  1
  O  O128  1  0.41749164  0.10552197  0.94125646  1
  O  O129  1  0.62026180  0.62996750  0.79286490  1
  O  O130  1  0.56168560  0.63523096  0.85355353  1
  O  O131  1  0.35369510  0.20633686  0.98428416  1
  O  O132  1  0.83990616  0.49766570  0.79221960  1
  O  O133  1  0.75478690  0.59269255  0.83103734  1
  O  O134  1  0.62169677  0.34999233  0.76589370  1
  O  O135  1  0.64250046  0.23621581  0.76921850  1
  O  O136  1  0.99827200  0.58562934  0.90630800  1
  O  O137  1  0.18840592  0.10789871  0.86553980  1
  O  O138  1  0.96622765  0.51750300  0.85561580  1
  O  O139  1  0.22045009  0.17602503  0.91623205  1
  O  O140  1  0.26583970  0.05162311  0.96921650  1
  O  O141  1  0.36492920  0.06299722  0.99654980  1
  O  O142  1  0.99184940  0.70734870  0.87834600  1
  O  O143  1  0.96637833  0.69981384  0.80677160  1
  O  O144  1  0.47224846  0.90268830  0.96012350  1
  O  O145  1  0.52107996  0.98085080  0.96730030  1
  O  O146  1  0.77341950  0.83994335  0.79396510  1
  O  O147  1  0.85648555  0.84476197  0.84348010  1
  O  O148  1  0.09402545  0.34823895  0.88547730  1
  O  O149  1  0.03686578  0.35440050  0.76898307  1
  O  O150  1  0.14814372  0.34234280  0.00504542  1
  O  O151  1  0.16078852  0.28806135  0.76686830  1
  O  O152  1  0.02422095  0.40868193  0.00716030  1
  O  O153  1  0.10685698  0.21727580  0.55769690  1
  O  O154  1  0.18217560  0.39894260  0.20982337  1
  O  O155  1  0.05348848  0.25914034  0.19734898  1
  O  O156  1  0.14784499  0.42263928  0.57306470  1
  O  O157  1  0.90944827  0.41154885  0.68266934  1
  O  O158  1  0.02863595  0.54709010  0.11233757  1
  O  O159  1  0.97240580  0.39371935  0.56594986  1
  O  O160  1  0.99995360  0.46231073  0.21900624  1
  O  O161  1  0.10592657  0.15176776  0.48302220  1
  O  O162  1  0.23579252  0.42411530  0.28222212  1
  O  O163  1  0.16105416  0.23816246  0.05309208  1
  O  O164  1  0.22853442  0.30611295  0.70817614  1
