# generated using pymatgen
data_ZnH8C10NO6
_symmetry_space_group_name_H-M   'P 1'
_cell_length_a   10.14140000
_cell_length_b   10.86775000
_cell_length_c   14.69757000
_cell_angle_alpha   91.69595000
_cell_angle_beta   105.74468000
_cell_angle_gamma   94.08745000
_symmetry_Int_Tables_number   1
_chemical_formula_structural   ZnH8C10NO6
_chemical_formula_sum   'Zn2 H16 C20 N2 O12'
_cell_volume   1553.11623296
_cell_formula_units_Z   2
loop_
 _symmetry_equiv_pos_site_id
 _symmetry_equiv_pos_as_xyz
  1  'x, y, z'
loop_
 _atom_site_type_symbol
 _atom_site_label
 _atom_site_symmetry_multiplicity
 _atom_site_fract_x
 _atom_site_fract_y
 _atom_site_fract_z
 _atom_site_occupancy
  Zn  Zn0  1  0.48060817  0.39486790  0.55113910  1
  Zn  Zn1  1  0.50008607  0.67545503  0.55056110  1
  H  H2  1  0.88773630  0.48195127  0.65956473  1
  H  H3  1  0.09123743  0.58826566  0.43928963  1
  H  H4  1  0.90562195  0.68661960  0.36582023  1
  H  H5  1  0.90088886  0.73534620  0.48349836  1
  H  H6  1  0.74479455  0.69877020  0.38970680  1
  H  H7  1  0.07810342  0.33493440  0.61540640  1
  H  H8  1  0.07341659  0.38368380  0.73308410  1
  H  H9  1  0.23421967  0.37154955  0.70917200  1
  H  H10  1  0.63161933  0.19888662  0.59983400  1
  H  H11  1  0.68943274  0.99245936  0.62968250  1
  H  H12  1  0.21279943  0.16557392  0.34610850  1
  H  H13  1  0.12628870  0.15255460  0.44201228  1
  H  H14  1  0.13823749  0.02345792  0.37058220  1
  H  H15  1  0.25519052  0.75101644  0.50412875  1
  H  H16  1  0.32221356  0.72071650  0.39637214  1
  H  H17  1  0.19133563  0.82255420  0.39625600  1
  C  C18  1  0.91081760  0.52670443  0.53309953  1
  C  C19  1  0.06815577  0.54355580  0.56576340  1
  C  C20  1  0.85041934  0.67187965  0.42071060  1
  C  C21  1  0.12858641  0.39842382  0.67817730  1
  C  C22  1  0.42638630  0.52708560  0.36635765  1
  C  C23  1  0.44528910  0.53120900  0.26829287  1
  C  C24  1  0.46117850  0.53454840  0.18664587  1
  C  C25  1  0.48077470  0.53786370  0.08924646  1
  C  C26  1  0.49762845  0.54028290  0.00744412  1
  C  C27  1  0.51757410  0.54332310  0.91005550  1
  C  C28  1  0.53400170  0.54587050  0.82846177  1
  C  C29  1  0.55457866  0.54773160  0.73075783  1
  C  C30  1  0.40985754  0.30076840  0.51372200  1
  C  C31  1  0.56457114  0.77318310  0.57824210  1
  C  C32  1  0.55089440  0.12925991  0.56361720  1
  C  C33  1  0.58768594  0.99824210  0.58091813  1
  C  C34  1  0.42983326  0.16907194  0.51487730  1
  C  C35  1  0.51091220  0.89086676  0.54555330  1
  C  C36  1  0.19545735  0.11017054  0.40508395  1
  C  C37  1  0.28727100  0.78964110  0.44173370  1
  N  N38  1  0.14095914  0.58369310  0.50980467  1
  N  N39  1  0.83801264  0.48655468  0.58905260  1
  O  O40  1  0.84319055  0.54499780  0.43956804  1
  O  O41  1  0.13578427  0.52530280  0.65929670  1
  O  O42  1  0.33447948  0.45375678  0.38556817  1
  O  O43  1  0.63710165  0.47777240  0.70651460  1
  O  O44  1  0.49036940  0.61806023  0.66829910  1
  O  O45  1  0.50041490  0.59749705  0.43521790  1
  O  O46  1  0.47967510  0.68482100  0.54525180  1
  O  O47  1  0.29185080  0.32071440  0.46905258  1
  O  O48  1  0.68783950  0.75514420  0.62926730  1
  O  O49  1  0.50002900  0.39099082  0.55307370  1
  O  O50  1  0.31769070  0.08081278  0.47465682  1
  O  O51  1  0.39318730  0.89141786  0.46454513  1
