# generated using pymatgen
data_Zn6H28C44O21
_symmetry_space_group_name_H-M   'P 1'
_cell_length_a   15.35462000
_cell_length_b   15.91752000
_cell_length_c   15.40647000
_cell_angle_alpha   95.72401000
_cell_angle_beta   116.47993000
_cell_angle_gamma   95.48949000
_symmetry_Int_Tables_number   1
_chemical_formula_structural   Zn6H28C44O21
_chemical_formula_sum   'Zn6 H28 C44 O21'
_cell_volume   3311.84646966
_cell_formula_units_Z   1
loop_
 _symmetry_equiv_pos_site_id
 _symmetry_equiv_pos_as_xyz
  1  'x, y, z'
loop_
 _atom_site_type_symbol
 _atom_site_label
 _atom_site_symmetry_multiplicity
 _atom_site_fract_x
 _atom_site_fract_y
 _atom_site_fract_z
 _atom_site_occupancy
  Zn  Zn0  1  0.89744590  0.15589240  0.17764180  1
  Zn  Zn1  1  0.91359645  0.07535581  0.36514148  1
  Zn  Zn2  1  0.36753050  0.54695590  0.26153000  1
  Zn  Zn3  1  0.59076440  0.63871140  0.41012844  1
  Zn  Zn4  1  0.69325730  0.80733190  0.59034130  1
  Zn  Zn5  1  0.85866517  0.74789083  0.78600234  1
  H  H6  1  0.92632556  0.80236316  0.79619235  1
  H  H7  1  0.98007965  0.62252300  0.77719265  1
  H  H8  1  0.94496256  0.60623140  0.90620023  1
  H  H9  1  0.03453040  0.79700180  0.97582096  1
  H  H10  1  0.73732996  0.35865098  0.55004644  1
  H  H11  1  0.59924495  0.43475005  0.46162550  1
  H  H12  1  0.80618790  0.62360096  0.39366180  1
  H  H13  1  0.94504300  0.55112220  0.47926950  1
  H  H14  1  0.90303373  0.66917336  0.29939580  1
  H  H15  1  0.78140000  0.69914420  0.25916090  1
  H  H16  1  0.73515420  0.63576156  0.08740171  1
  H  H17  1  0.84302320  0.71718276  0.13756628  1
  H  H18  1  0.85637057  0.60543520  0.12759300  1
  H  H19  1  0.06552935  0.59706980  0.41906208  1
  H  H20  1  0.14855337  0.56275940  0.31803125  1
  H  H21  1  0.07828724  0.43760327  0.18514825  1
  H  H22  1  0.92442330  0.34526408  0.15404700  1
  H  H23  1  0.83950365  0.37853256  0.25253215  1
  H  H24  1  0.94062020  0.03392482  0.86809250  1
  H  H25  1  0.03929329  0.06872261  0.07753909  1
  H  H26  1  0.98769660  0.89124720  0.07806885  1
  H  H27  1  0.71255910  0.89615850  0.87614465  1
  H  H28  1  0.76418406  0.07129121  0.87296903  1
  H  H29  1  0.81192625  0.92839830  0.08318984  1
  H  H30  1  0.26976850  0.26019278  0.38150844  1
  H  H31  1  0.10793944  0.17503624  0.35570288  1
  H  H32  1  0.13290955  0.29477552  0.17435141  1
  H  H33  1  0.03100379  0.31936450  0.23564996  1
  C  C34  1  0.98729510  0.66424894  0.95743660  1
  C  C35  1  0.94795940  0.67916720  0.75323540  1
  C  C36  1  0.95353410  0.74388736  0.81931937  1
  C  C37  1  0.99537280  0.73839355  0.92460800  1
  C  C38  1  0.05017149  0.65623980  0.05978870  1
  C  C39  1  0.88258760  0.67495257  0.64847720  1
  C  C40  1  0.76909095  0.80498934  0.49658576  1
  C  C41  1  0.82999600  0.03602266  0.43479893  1
  C  C42  1  0.78240496  0.88839805  0.47482720  1
  C  C43  1  0.79838943  0.95765370  0.45621467  1
  C  C44  1  0.90646480  0.36224810  0.53414863  1
  C  C45  1  0.58573530  0.53585273  0.32586858  1
  C  C46  1  0.82083386  0.44786733  0.40406750  1
  C  C47  1  0.82328940  0.40429000  0.47928510  1
  C  C48  1  0.73988104  0.39568690  0.49570090  1
  C  C49  1  0.66151230  0.43930206  0.44593397  1
  C  C50  1  0.66523730  0.48992136  0.37785313  1
  C  C51  1  0.74256885  0.48961460  0.35390270  1
  C  C52  1  0.80696934  0.56378170  0.34964493  1
  C  C53  1  0.89417530  0.51715820  0.40376140  1
  C  C54  1  0.82361460  0.65109910  0.24540477  1
  C  C55  1  0.81386346  0.65234190  0.14294763  1
  C  C56  1  0.94676805  0.49022314  0.34468347  1
  C  C57  1  0.03444016  0.54145694  0.36203316  1
  C  C58  1  0.08141077  0.52254915  0.30454160  1
  C  C59  1  0.04164875  0.45207474  0.22944093  1
  C  C60  1  0.95504510  0.40009760  0.21197529  1
  C  C61  1  0.90750030  0.41891977  0.26891166  1
  C  C62  1  0.88859224  0.84239036  0.86046730  1
  C  C63  1  0.84827970  0.11066651  0.09143770  1
  C  C64  1  0.78655310  0.93505060  0.92137160  1
  C  C65  1  0.81473270  0.02995777  0.91829276  1
  C  C66  1  0.96605910  0.02897716  0.03138089  1
  C  C67  1  0.93772910  0.93346060  0.03374648  1
  C  C68  1  0.91154860  0.01117837  0.91737200  1
  C  C69  1  0.84114194  0.95194800  0.03431153  1
  C  C70  1  0.88294770  0.91696140  0.92135460  1
  C  C71  1  0.86932445  0.04642940  0.03097749  1
  C  C72  1  0.93670430  0.23583096  0.27226725  1
  C  C73  1  0.02892820  0.26466668  0.27199230  1
  C  C74  1  0.20067553  0.29883695  0.24208434  1
  C  C75  1  0.20147780  0.26017827  0.31567705  1
  C  C76  1  0.10857073  0.22648902  0.31461406  1
  C  C77  1  0.28468050  0.35791066  0.25408897  1
  O  O78  1  0.09472561  0.72406760  0.12216997  1
  O  O79  1  0.84477180  0.74063960  0.61717266  1
  O  O80  1  0.07076669  0.58279600  0.07937837  1
  O  O81  1  0.85321850  0.60183500  0.59540340  1
  O  O82  1  0.78111166  0.05723476  0.35146270  1
  O  O83  1  0.91768795  0.06941569  0.48912072  1
  O  O84  1  0.69790900  0.75283150  0.42519587  1
  O  O85  1  0.84944000  0.77438366  0.54289990  1
  O  O86  1  0.99492323  0.39773050  0.55646560  1
  O  O87  1  0.88847660  0.28879973  0.55692670  1
  O  O88  1  0.55812186  0.58823425  0.37484193  1
  O  O89  1  0.54381230  0.52129030  0.23115894  1
  O  O90  1  0.78526825  0.56879340  0.25107586  1
  O  O91  1  0.76041555  0.12424886  0.05620360  1
  O  O92  1  0.96091264  0.80136037  0.90641207  1
  O  O93  1  0.90701470  0.12982523  0.18273818  1
  O  O94  1  0.80401470  0.79637770  0.80277896  1
  O  O95  1  0.87058824  0.28279972  0.23441653  1
  O  O96  1  0.36736345  0.36265847  0.32698157  1
  O  O97  1  0.27073762  0.40931427  0.19502412  1
  O  O98  1  0.94429570  0.21048714  0.35166734  1
