# generated using pymatgen
data_CuH39C61N4O13
_symmetry_space_group_name_H-M   'P 1'
_cell_length_a   18.14363000
_cell_length_b   22.34401000
_cell_length_c   32.67516000
_cell_angle_alpha   85.90322000
_cell_angle_beta   90.99415000
_cell_angle_gamma   82.51770000
_symmetry_Int_Tables_number   1
_chemical_formula_structural   CuH39C61N4O13
_chemical_formula_sum   'Cu2 H78 C122 N8 O26'
_cell_volume   13095.44658570
_cell_formula_units_Z   2
loop_
 _symmetry_equiv_pos_site_id
 _symmetry_equiv_pos_as_xyz
  1  'x, y, z'
loop_
 _atom_site_type_symbol
 _atom_site_label
 _atom_site_symmetry_multiplicity
 _atom_site_fract_x
 _atom_site_fract_y
 _atom_site_fract_z
 _atom_site_occupancy
  Cu  Cu0  1  0.26931740  0.59858155  0.77959770  1
  Cu  Cu1  1  0.41000593  0.55697036  0.80242270  1
  H  H2  1  0.37522978  0.01193166  0.89253230  1
  H  H3  1  0.30446553  0.14357054  0.68638390  1
  H  H4  1  0.42608163  0.30122370  0.77602290  1
  H  H5  1  0.25375226  0.85423530  0.80262240  1
  H  H6  1  0.41866684  0.41163070  0.77353760  1
  H  H7  1  0.26123542  0.74383134  0.80505830  1
  H  H8  1  0.18385641  0.42618720  0.79378350  1
  H  H9  1  0.49621147  0.72936000  0.78532016  1
  H  H10  1  0.02574667  0.27877542  0.78973573  1
  H  H11  1  0.05064910  0.27292237  0.84394460  1
  H  H12  1  0.98486274  0.33515802  0.82250490  1
  H  H13  1  0.10720938  0.36912474  0.83438450  1
  H  H14  1  0.08300079  0.37409315  0.78005890  1
  H  H15  1  0.16299404  0.27580142  0.77273640  1
  H  H16  1  0.18495508  0.26914263  0.82685240  1
  H  H17  1  0.62908410  0.88301090  0.73525786  1
  H  H18  1  0.65429205  0.87664400  0.78943550  1
  H  H19  1  0.69496405  0.82060826  0.75635250  1
  H  H20  1  0.59703460  0.78135810  0.79883810  1
  H  H21  1  0.57259650  0.78670610  0.74452810  1
  H  H22  1  0.49502304  0.88665223  0.75245980  1
  H  H23  1  0.51701516  0.87948230  0.80657816  1
  H  H24  1  0.22295311  0.53074545  0.51072310  1
  H  H25  1  0.46345630  0.62269910  0.06686551  1
  H  H26  1  0.34083647  0.41843430  0.39507210  1
  H  H27  1  0.34865567  0.73709136  0.18365055  1
  H  H28  1  0.24733754  0.55651240  0.99625456  1
  H  H29  1  0.43411642  0.59993130  0.58410410  1
  H  H30  1  0.41691643  0.43544883  0.19119692  1
  H  H31  1  0.27243510  0.72011530  0.38750857  1
  H  H32  1  0.41608290  0.43095025  0.26444972  1
  H  H33  1  0.27419513  0.72468160  0.31429923  1
  H  H34  1  0.26585907  0.43744585  0.59425640  1
  H  H35  1  0.18810962  0.45624232  0.55757165  1
  H  H36  1  0.17786616  0.44911137  0.65140170  1
  H  H37  1  0.10106140  0.46691886  0.61560416  1
  H  H38  1  0.13043606  0.36521724  0.58743757  1
  H  H39  1  0.11372410  0.35897850  0.64172816  1
  H  H40  1  0.20775160  0.34691304  0.62396850  1
  H  H41  1  0.52964497  0.69863886  0.97181230  1
  H  H42  1  0.49606502  0.69523160  0.02252107  1
  H  H43  1  0.39642390  0.72465366  0.94376475  1
  H  H44  1  0.36616614  0.73008585  0.99561540  1
  H  H45  1  0.44847596  0.80999000  0.00556605  1
  H  H46  1  0.38176706  0.83125675  0.96378785  1
  H  H47  1  0.47745480  0.80574316  0.95296160  1
  H  H48  1  0.20788701  0.63559014  0.10869609  1
  H  H49  1  0.10506870  0.60040134  0.14812876  1
  H  H50  1  0.06862097  0.49886283  0.13932946  1
  H  H51  1  0.13584107  0.43211606  0.09089791  1
  H  H52  1  0.23997895  0.46592090  0.05182742  1
  H  H53  1  0.44413725  0.69017720  0.52930397  1
  H  H54  1  0.55001340  0.72420920  0.49194446  1
  H  H55  1  0.61950250  0.65787250  0.44408180  1
  H  H56  1  0.58356476  0.55649376  0.43413260  1
  H  H57  1  0.47900910  0.52106595  0.47183830  1
  H  H58  1  0.23290142  0.45445624  0.27845377  1
  H  H59  1  0.20848434  0.36346980  0.24462596  1
  H  H60  1  0.28524020  0.26482278  0.26290858  1
  H  H61  1  0.38678700  0.25707942  0.31551500  1
  H  H62  1  0.41367802  0.34780830  0.34886444  1
  H  H63  1  0.27666450  0.80783310  0.22989510  1
  H  H64  1  0.30389076  0.89851230  0.26319447  1
  H  H65  1  0.40552843  0.89062864  0.31574658  1
  H  H66  1  0.48206493  0.79188293  0.33402652  1
  H  H67  1  0.45731914  0.70093170  0.30025850  1
  H  H68  1  0.80708444  0.49221435  0.83563280  1
  H  H69  1  0.86990476  0.66655350  0.74640423  1
  H  H70  1  0.73914850  0.64950746  0.75297710  1
  H  H71  1  0.93815830  0.50717777  0.82711190  1
  H  H72  1  0.51558990  0.62818050  0.83108480  1
  H  H73  1  0.14769971  0.62216590  0.83702830  1
  H  H74  1  0.56238234  0.45677722  0.78542954  1
  H  H75  1  0.12709868  0.60852510  0.70940334  1
  H  H76  1  0.60771793  0.69732380  0.83765730  1
  H  H77  1  0.04783988  0.61036897  0.88402975  1
  H  H78  1  0.68596500  0.41376220  0.76588255  1
  H  H79  1  0.01196885  0.59449980  0.67487210  1
  C  C80  1  0.29575440  0.49251056  0.78220100  1
  C  C81  1  0.38426647  0.66297930  0.79661340  1
  C  C82  1  0.34712008  0.95338010  0.75444980  1
  C  C83  1  0.33274096  0.20211229  0.82445650  1
  C  C84  1  0.37068394  0.94737570  0.82684120  1
  C  C85  1  0.30911288  0.20812294  0.75207025  1
  C  C86  1  0.36091852  0.01056853  0.82685640  1
  C  C87  1  0.31885470  0.14492853  0.75205790  1
  C  C88  1  0.34528040  0.04582727  0.78949255  1
  C  C89  1  0.33450454  0.10968123  0.78941860  1
  C  C90  1  0.34029960  0.01728149  0.75231960  1
  C  C91  1  0.33948645  0.13821650  0.82659173  1
  C  C92  1  0.36499405  0.03884942  0.86358220  1
  C  C93  1  0.31473318  0.11665513  0.71533436  1
  C  C94  1  0.35303184  0.10183683  0.86407286  1
  C  C95  1  0.32669765  0.05366778  0.71484065  1
  C  C96  1  0.37301648  0.32818133  0.78009610  1
  C  C97  1  0.30686066  0.82729540  0.79865020  1
  C  C98  1  0.36864590  0.39082727  0.77879150  1
  C  C99  1  0.31127830  0.76465183  0.79992723  1
  C  C100  1  0.30020759  0.42623670  0.78358010  1
  C  C101  1  0.37978336  0.72926260  0.79525890  1
  C  C102  1  0.23604940  0.39807346  0.78994460  1
  C  C103  1  0.44395970  0.75744385  0.78905160  1
  C  C104  1  0.23978580  0.33454144  0.79192980  1
  C  C105  1  0.44017090  0.82099444  0.78709054  1
  C  C106  1  0.30940595  0.29990342  0.78661250  1
  C  C107  1  0.37049457  0.85559183  0.79229116  1
  C  C108  1  0.17210935  0.30195045  0.79966223  1
  C  C109  1  0.09937482  0.34253612  0.80751383  1
  C  C110  1  0.03636661  0.30482247  0.81645390  1
  C  C111  1  0.50786290  0.85361440  0.77952456  1
  C  C112  1  0.58055604  0.81309330  0.77148250  1
  C  C113  1  0.64351700  0.85088100  0.76260984  1
  C  C114  1  0.32733870  0.57076930  0.37536510  1
  C  C115  1  0.36215064  0.58477940  0.20342365  1
  C  C116  1  0.33622035  0.51454365  0.39825067  1
  C  C117  1  0.35298422  0.64099870  0.18052630  1
  C  C118  1  0.34206640  0.46150172  0.37773266  1
  C  C119  1  0.34755757  0.69403550  0.20102872  1
  C  C120  1  0.31029323  0.62402076  0.39580566  1
  C  C121  1  0.37882227  0.53150797  0.18295994  1
  C  C122  1  0.32856932  0.56691366  0.59022130  1
  C  C123  1  0.35306674  0.58865450  0.98866270  1
  C  C124  1  0.36449337  0.52417290  0.26910582  1
  C  C125  1  0.32563934  0.63140100  0.30970868  1
  C  C126  1  0.34143198  0.63590180  0.26711290  1
  C  C127  1  0.34869203  0.51965684  0.31170225  1
  C  C128  1  0.35542253  0.58168630  0.24670908  1
  C  C129  1  0.33454630  0.57387304  0.33210787  1
  C  C130  1  0.39420540  0.47347176  0.24836339  1
  C  C131  1  0.29587474  0.68212560  0.33041337  1
  C  C132  1  0.39795738  0.47642034  0.20589260  1
  C  C133  1  0.29158553  0.67914283  0.37284654  1
  C  C134  1  0.32962960  0.56922780  0.63486960  1
  C  C135  1  0.35081210  0.58527770  0.94409510  1
  C  C136  1  0.34296110  0.46346822  0.33480844  1
  C  C137  1  0.34709330  0.69207144  0.24397110  1
  C  C138  1  0.33512760  0.51285607  0.44131690  1
  C  C139  1  0.35317624  0.64265140  0.13744943  1
  C  C140  1  0.30975770  0.62045870  0.43880287  1
  C  C141  1  0.37835777  0.53503010  0.13995667  1
  C  C142  1  0.38926175  0.58301930  0.52529340  1
  C  C143  1  0.29511255  0.57313967  0.05441295  1
  C  C144  1  0.38835263  0.58451533  0.56802386  1
  C  C145  1  0.29397365  0.57167435  0.01167779  1
  C  C146  1  0.26977232  0.54503260  0.56988955  1
  C  C147  1  0.41325274  0.61011577  0.00806577  1
  C  C148  1  0.26958853  0.54471360  0.52697300  1
  C  C149  1  0.41561362  0.60999763  0.05105405  1
  C  C150  1  0.32873765  0.56338950  0.50463307  1
  C  C151  1  0.35701790  0.59204006  0.07419920  1
  C  C152  1  0.20959815  0.46391267  0.58859600  1
  C  C153  1  0.15732512  0.44111913  0.62044830  1
  C  C154  1  0.15217815  0.37382644  0.61815464  1
  C  C155  1  0.48104750  0.68886850  0.99015930  1
  C  C156  1  0.41358972  0.73446786  0.97503465  1
  C  C157  1  0.43167692  0.79935557  0.97432520  1
  C  C158  1  0.23242617  0.55297050  0.07781339  1
  C  C159  1  0.19345587  0.59076950  0.10498569  1
  C  C160  1  0.13475828  0.57114460  0.12717235  1
  C  C161  1  0.11411998  0.51395230  0.12215749  1
  C  C162  1  0.15199798  0.47633687  0.09485828  1
  C  C163  1  0.21085653  0.49571356  0.07270388  1
  C  C164  1  0.45290157  0.60340700  0.50285930  1
  C  C165  1  0.47422644  0.66055390  0.50866060  1
  C  C166  1  0.53406954  0.68006146  0.48747980  1
  C  C167  1  0.57323194  0.64268110  0.46049058  1
  C  C168  1  0.55287224  0.58558154  0.45482048  1
  C  C169  1  0.49318070  0.56583480  0.47602400  1
  C  C170  1  0.32578972  0.40811807  0.31582823  1
  C  C171  1  0.26707000  0.41168502  0.28667727  1
  C  C172  1  0.25319055  0.36027950  0.26736602  1
  C  C173  1  0.29644310  0.30464238  0.27769142  1
  C  C174  1  0.35356247  0.30027488  0.30742157  1
  C  C175  1  0.36827970  0.35170080  0.32647067  1
  C  C176  1  0.36447750  0.74740400  0.26291080  1
  C  C177  1  0.32211283  0.80387190  0.25226176  1
  C  C178  1  0.33701777  0.85527570  0.27128655  1
  C  C179  1  0.39419380  0.85082550  0.30099080  1
  C  C180  1  0.43731844  0.79513290  0.31131455  1
  C  C181  1  0.42325106  0.74374926  0.29203610  1
  C  C182  1  0.55585180  0.59428990  0.81921774  1
  C  C183  1  0.11391962  0.61558586  0.81060580  1
  C  C184  1  0.58211154  0.49810610  0.79344124  1
  C  C185  1  0.10245061  0.60786850  0.73924600  1
  C  C186  1  0.63076830  0.60412010  0.81652945  1
  C  C187  1  0.03853857  0.60862297  0.81595510  1
  C  C188  1  0.65690710  0.50628346  0.78729993  1
  C  C189  1  0.02807677  0.59668326  0.74258640  1
  C  C190  1  0.68295900  0.55993867  0.79958147  1
  C  C191  1  0.99420280  0.59787400  0.78154004  1
  C  C192  1  0.82029440  0.53010714  0.81583070  1
  C  C193  1  0.85678190  0.62811330  0.76568760  1
  C  C194  1  0.78215000  0.61845905  0.76951504  1
  C  C195  1  0.89507380  0.53874400  0.81106365  1
  C  C196  1  0.91422650  0.58811855  0.78616965  1
  C  C197  1  0.76292120  0.56960080  0.79487960  1
  C  C198  1  0.65099320  0.66017616  0.83313760  1
  C  C199  1  0.00931776  0.61500800  0.85784537  1
  C  C200  1  0.70375180  0.45821145  0.76684070  1
  C  C201  1  0.99001575  0.58226234  0.70456800  1
  N  N202  1  0.36344567  0.92036820  0.79108727  1
  N  N203  1  0.31640130  0.23513414  0.78782177  1
  N  N204  1  0.35115442  0.12725289  0.90317980  1
  N  N205  1  0.32847470  0.02824464  0.67573845  1
  N  N206  1  0.32473308  0.56554884  0.46063070  1
  N  N207  1  0.36286750  0.58992080  0.11815893  1
  N  N208  1  0.53306150  0.54193825  0.80836120  1
  N  N209  1  0.14451587  0.61604106  0.77282727  1
  O  O210  1  0.23186693  0.52533036  0.77485210  1
  O  O211  1  0.44816080  0.63015960  0.80395300  1
  O  O212  1  0.35565270  0.51682276  0.78850204  1
  O  O213  1  0.32437503  0.63866720  0.79030305  1
  O  O214  1  0.33607557  0.92408600  0.72065455  1
  O  O215  1  0.34389147  0.23140300  0.85824080  1
  O  O216  1  0.38655993  0.91296030  0.86233310  1
  O  O217  1  0.29320794  0.24253650  0.71658105  1
  O  O218  1  0.40416020  0.10929003  0.93034490  1
  O  O219  1  0.28959778  0.15711677  0.91480710  1
  O  O220  1  0.27529722  0.04610187  0.64865416  1
  O  O221  1  0.39004573  0.99851716  0.66401810  1
  O  O222  1  0.34241715  0.69630855  0.11503111  1
  O  O223  1  0.39273158  0.48409823  0.12002367  1
  O  O224  1  0.29477500  0.67137320  0.45868560  1
  O  O225  1  0.27053720  0.59255356  0.65257597  1
  O  O226  1  0.40970388  0.56167960  0.92640710  1
  O  O227  1  0.38965290  0.54746340  0.65560450  1
  O  O228  1  0.29058810  0.60676974  0.92337860  1
  O  O229  1  0.34559938  0.45917550  0.46372452  1
  O  O230  1  0.21166630  0.52631706  0.59225136  1
  O  O231  1  0.47032380  0.62827840  0.98436713  1
  O  O232  1  0.71472096  0.66490406  0.84364000  1
  O  O233  1  0.94309515  0.62800420  0.86369354  1
  O  O234  1  0.76042260  0.46784130  0.74937820  1
  O  O235  1  0.93633336  0.55451480  0.70566260  1
