# generated using pymatgen
data_CuHC11N2O7
_symmetry_space_group_name_H-M   'P 1'
_cell_length_a   9.38748000
_cell_length_b   9.82095000
_cell_length_c   14.82406000
_cell_angle_alpha   93.82568000
_cell_angle_beta   107.36287000
_cell_angle_gamma   92.96561000
_symmetry_Int_Tables_number   1
_chemical_formula_structural   CuHC11N2O7
_chemical_formula_sum   'Cu2 H2 C22 N4 O14'
_cell_volume   1297.81886006
_cell_formula_units_Z   2
loop_
 _symmetry_equiv_pos_site_id
 _symmetry_equiv_pos_as_xyz
  1  'x, y, z'
loop_
 _atom_site_type_symbol
 _atom_site_label
 _atom_site_symmetry_multiplicity
 _atom_site_fract_x
 _atom_site_fract_y
 _atom_site_fract_z
 _atom_site_occupancy
  Cu  Cu0  1  0.41705647  0.81933427  0.51355857  1
  Cu  Cu1  1  0.59873870  0.05403721  0.54820390  1
  H  H2  1  0.13044274  0.51225780  0.41101650  1
  H  H3  1  0.87981856  0.36543340  0.64533710  1
  C  C4  1  0.71040520  0.01091957  0.77017190  1
  C  C5  1  0.64223250  0.98515080  0.84809947  1
  C  C6  1  0.58978930  0.96617910  0.91475200  1
  C  C7  1  0.52971876  0.94492960  0.99491150  1
  C  C8  1  0.47952673  0.92730770  0.06269105  1
  C  C9  1  0.41945620  0.90605825  0.14285062  1
  C  C10  1  0.36705047  0.88703734  0.20950505  1
  C  C11  1  0.29891038  0.86121480  0.28743133  1
  C  C12  1  0.37746128  0.50437960  0.47817590  1
  C  C13  1  0.63281740  0.37331235  0.57816976  1
  C  C14  1  0.50876330  0.58567500  0.53244180  1
  C  C15  1  0.50149673  0.29201610  0.52388996  1
  C  C16  1  0.63559145  0.51913667  0.58205664  1
  C  C17  1  0.37466928  0.35855430  0.47428614  1
  C  C18  1  0.51313020  0.73735356  0.54176960  1
  C  C19  1  0.49713050  0.14033759  0.51457304  1
  C  C20  1  0.23870255  0.56885415  0.42756150  1
  C  C21  1  0.77155820  0.30883694  0.62878126  1
  C  C22  1  0.22524170  0.91107570  0.56746760  1
  C  C23  1  0.07145807  0.93054970  0.54032850  1
  C  C24  1  0.94138990  0.94689840  0.51735740  1
  C  C25  1  0.78760270  0.96639335  0.49029693  1
  N  N26  1  0.49358106  0.02058029  0.50759640  1
  N  N27  1  0.51667976  0.85711086  0.54874640  1
  N  N28  1  0.24311680  0.27709663  0.41702770  1
  N  N29  1  0.76716180  0.60059530  0.63931805  1
  O  O30  1  0.65387510  0.94473570  0.68560590  1
  O  O31  1  0.82502025  0.10117292  0.78927170  1
  O  O32  1  0.18435894  0.77088420  0.26834360  1
  O  O33  1  0.35542002  0.92740960  0.37199932  1
  O  O34  1  0.17922735  0.18471922  0.45416626  1
  O  O35  1  0.19142587  0.29035303  0.32653870  1
  O  O36  1  0.83105120  0.69297254  0.60217947  1
  O  O37  1  0.81881820  0.58735245  0.72981260  1
  O  O38  1  0.24295473  0.68426360  0.40206403  1
  O  O39  1  0.76732190  0.19342814  0.65424890  1
  O  O40  1  0.26722512  0.79014530  0.57693820  1
  O  O41  1  0.74562716  0.08734429  0.48096460  1
  O  O42  1  0.69375414  0.86275110  0.47603142  1
  O  O43  1  0.31909820  0.01473856  0.58187140  1
