# generated using pymatgen
data_ZnH12C27Br(NO4)2
_symmetry_space_group_name_H-M   'P 1'
_cell_length_a   15.71163000
_cell_length_b   16.29184000
_cell_length_c   22.11032000
_cell_angle_alpha   92.73887000
_cell_angle_beta   91.51957000
_cell_angle_gamma   83.51977000
_symmetry_Int_Tables_number   1
_chemical_formula_structural   ZnH12C27Br(NO4)2
_chemical_formula_sum   'Zn2 H24 C54 Br2 N4 O16'
_cell_volume   5615.75232729
_cell_formula_units_Z   2
loop_
 _symmetry_equiv_pos_site_id
 _symmetry_equiv_pos_as_xyz
  1  'x, y, z'
loop_
 _atom_site_type_symbol
 _atom_site_label
 _atom_site_symmetry_multiplicity
 _atom_site_fract_x
 _atom_site_fract_y
 _atom_site_fract_z
 _atom_site_occupancy
  Zn  Zn0  1  0.79419760  0.23058423  0.09462853  1
  Zn  Zn1  1  0.73526620  0.40638652  0.05698935  1
  H  H2  1  0.56537770  0.28111154  0.63847570  1
  H  H3  1  0.96774185  0.34011337  0.51021800  1
  H  H4  1  0.83694124  0.42835864  0.80452967  1
  H  H5  1  0.63827120  0.42176834  0.35691097  1
  H  H6  1  0.76416665  0.18791583  0.91421586  1
  H  H7  1  0.81941825  0.22530435  0.22303297  1
  H  H8  1  0.75204635  0.18673046  0.80368700  1
  H  H9  1  0.83525610  0.21833720  0.33302754  1
  H  H10  1  0.49050560  0.27226764  0.55184530  1
  H  H11  1  0.04385841  0.34403893  0.59660953  1
  H  H12  1  0.86666524  0.50566880  0.90211150  1
  H  H13  1  0.57023203  0.49472785  0.26718720  1
  H  H14  1  0.33201286  0.21445054  0.14074856  1
  H  H15  1  0.19394350  0.42509258  0.00770960  1
  H  H16  1  0.21385019  0.35184124  0.17798758  1
  H  H17  1  0.31210616  0.28770190  0.97047055  1
  H  H18  1  0.22216100  0.18395732  0.03975026  1
  H  H19  1  0.30379537  0.45558580  0.10870787  1
  H  H20  1  0.88989294  0.58823570  0.07091816  1
  H  H21  1  0.70309360  0.04566836  0.00701643  1
  H  H22  1  0.62079215  0.63110060  0.04708868  1
  H  H23  1  0.84184570  0.01192498  0.17248257  1
  H  H24  1  0.62556550  0.78123534  0.06003749  1
  H  H25  1  0.83436200  0.86244184  0.16277370  1
  C  C26  1  0.82093170  0.37641230  0.82916665  1
  C  C27  1  0.67769310  0.37951067  0.32704630  1
  C  C28  1  0.83305514  0.37630800  0.89212304  1
  C  C29  1  0.66403650  0.38133750  0.26428500  1
  C  C30  1  0.81023020  0.30851355  0.92379660  1
  C  C31  1  0.71704770  0.32647540  0.22572199  1
  C  C32  1  0.78128350  0.24063718  0.89103717  1
  C  C33  1  0.77852744  0.26815382  0.25148016  1
  C  C34  1  0.77329590  0.24013703  0.82818216  1
  C  C35  1  0.78855395  0.26466998  0.31408694  1
  C  C36  1  0.79244270  0.30821553  0.79692170  1
  C  C37  1  0.73855350  0.32057120  0.35221204  1
  C  C38  1  0.81443506  0.30684307  0.99033916  1
  C  C39  1  0.71147220  0.32921250  0.15916894  1
  C  C40  1  0.82418907  0.32605970  0.44481520  1
  C  C41  1  0.70780270  0.29952562  0.70409960  1
  C  C42  1  0.67761800  0.30141040  0.44945030  1
  C  C43  1  0.85679560  0.31461564  0.69900125  1
  C  C44  1  0.68296030  0.29997826  0.51324670  1
  C  C45  1  0.85119140  0.31720233  0.63525400  1
  C  C46  1  0.76260040  0.31018114  0.54241320  1
  C  C47  1  0.77115300  0.30861260  0.60616195  1
  C  C48  1  0.83377460  0.32225165  0.50788340  1
  C  C49  1  0.69941890  0.29874063  0.64079756  1
  C  C50  1  0.61143893  0.28892404  0.54846420  1
  C  C51  1  0.92273230  0.32818154  0.60002190  1
  C  C52  1  0.62053850  0.28895080  0.61182470  1
  C  C53  1  0.91290206  0.33104193  0.53680350  1
  C  C54  1  0.87518966  0.44521973  0.92146680  1
  C  C55  1  0.58993936  0.43703976  0.24218383  1
  C  C56  1  0.60500205  0.31670460  0.06816264  1
  C  C57  1  0.92095447  0.32283857  0.08029550  1
  C  C58  1  0.23681423  0.33738202  0.13121219  1
  C  C59  1  0.28914213  0.30216116  0.01724595  1
  C  C60  1  0.30007032  0.26192886  0.11079709  1
  C  C61  1  0.22588672  0.37761497  0.03766496  1
  C  C62  1  0.51469400  0.31736398  0.06984386  1
  C  C63  1  0.01126241  0.32217917  0.07861429  1
  C  C64  1  0.28458276  0.39438134  0.09319553  1
  C  C65  1  0.24137436  0.24516247  0.05526652  1
  C  C66  1  0.34624000  0.31894138  0.07280573  1
  C  C67  1  0.17971633  0.32060176  0.07565240  1
  C  C68  1  0.43854560  0.31804115  0.07121433  1
  C  C69  1  0.08741139  0.32150270  0.07724772  1
  C  C70  1  0.83856210  0.71638733  0.07287688  1
  C  C71  1  0.72942630  0.91977140  0.03238416  1
  C  C72  1  0.83215547  0.63074905  0.06790084  1
  C  C73  1  0.73250496  0.00564146  0.04100000  1
  C  C74  1  0.68197030  0.65450114  0.05499086  1
  C  C75  1  0.80939520  0.98704636  0.13330339  1
  C  C76  1  0.68489210  0.74044466  0.06163494  1
  C  C77  1  0.80599093  0.90111090  0.12739784  1
  C  C78  1  0.76372780  0.77321696  0.07005265  1
  C  C79  1  0.76648830  0.86558187  0.07629451  1
  Br  Br80  1  0.95120317  0.75138480  0.07954054  1
  Br  Br81  1  0.67819494  0.88039696  0.95839230  1
  N  N82  1  0.74713665  0.31568706  0.41692640  1
  N  N83  1  0.78550833  0.30726027  0.73187060  1
  N  N84  1  0.75490900  0.60076904  0.05854433  1
  N  N85  1  0.77252406  0.03850675  0.09062666  1
  O  O86  1  0.79614013  0.37450920  0.02269745  1
  O  O87  1  0.72974460  0.26160650  0.12676056  1
  O  O88  1  0.69173676  0.39924145  0.13416155  1
  O  O89  1  0.83414810  0.23687421  0.01529670  1
  O  O90  1  0.89116466  0.34101966  0.41159043  1
  O  O91  1  0.63852040  0.29356742  0.73775905  1
  O  O92  1  0.60394000  0.28800750  0.41982064  1
  O  O93  1  0.93283520  0.31866893  0.72815746  1
  O  O94  1  0.53309770  0.27913544  0.52069050  1
  O  O95  1  0.00132036  0.33693582  0.62774140  1
  O  O96  1  0.92408040  0.43412086  0.96486320  1
  O  O97  1  0.54673950  0.41672350  0.19849989  1
  O  O98  1  0.63636230  0.38788387  0.07042825  1
  O  O99  1  0.88959410  0.25165927  0.07802989  1
  O  O100  1  0.65165980  0.24500139  0.06411027  1
  O  O101  1  0.87429655  0.39454174  0.08434785  1
