# generated using pymatgen
data_ZnH15C31Br(NO6)2
_symmetry_space_group_name_H-M   'P 1'
_cell_length_a   15.74749000
_cell_length_b   16.35002000
_cell_length_c   22.27740000
_cell_angle_alpha   92.80856000
_cell_angle_beta   91.59071000
_cell_angle_gamma   83.14626000
_symmetry_Int_Tables_number   1
_chemical_formula_structural   ZnH15C31Br(NO6)2
_chemical_formula_sum   'Zn2 H30 C62 Br2 N4 O24'
_cell_volume   5686.58458981
_cell_formula_units_Z   2
loop_
 _symmetry_equiv_pos_site_id
 _symmetry_equiv_pos_as_xyz
  1  'x, y, z'
loop_
 _atom_site_type_symbol
 _atom_site_label
 _atom_site_symmetry_multiplicity
 _atom_site_fract_x
 _atom_site_fract_y
 _atom_site_fract_z
 _atom_site_occupancy
  Zn  Zn0  1  0.49021160  0.35840600  0.01584170  1
  Zn  Zn1  1  0.53966300  0.17371759  0.01314074  1
  H  H2  1  0.50704220  0.76169770  0.94516150  1
  H  H3  1  0.58435404  0.89207430  0.92334530  1
  H  H4  1  0.45268854  0.63851890  0.10759573  1
  H  H5  1  0.27535835  0.09342480  0.12426858  1
  H  H6  1  0.62581146  0.42362776  0.84579664  1
  H  H7  1  0.67800840  0.66647360  0.86521370  1
  H  H8  1  0.30514556  0.79814710  0.07833068  1
  H  H9  1  0.46334240  0.48639563  0.09721281  1
  H  H10  1  0.57228820  0.04425991  0.93386110  1
  H  H11  1  0.52612734  0.76869535  0.08321394  1
  H  H12  1  0.72167027  0.28998116  0.57515085  1
  H  H13  1  0.61116940  0.09018470  0.32751128  1
  H  H14  1  0.49798140  0.07994264  0.32400993  1
  H  H15  1  0.56716040  0.03147075  0.26636463  1
  H  H16  1  0.52654463  0.44991050  0.70381314  1
  H  H17  1  0.41334780  0.43966836  0.70031154  1
  H  H18  1  0.45736596  0.49838135  0.76144780  1
  H  H19  1  0.30284700  0.23987190  0.45267195  1
  H  H20  1  0.72615790  0.27794394  0.46604672  1
  H  H21  1  0.29835722  0.25191690  0.56177560  1
  H  H22  1  0.55349080  0.10086720  0.17627785  1
  H  H23  1  0.47102648  0.42898586  0.85154500  1
  H  H24  1  0.49622586  0.36525545  0.17413868  1
  H  H25  1  0.52828250  0.16459760  0.85368390  1
  H  H26  1  0.05888682  0.35774013  0.94044740  1
  H  H27  1  0.86680794  0.26736352  0.83086437  1
  H  H28  1  0.16203165  0.26226590  0.19732073  1
  H  H29  1  0.96996295  0.17189537  0.08773264  1
  H  H30  1  0.96114373  0.40786930  0.04511186  1
  H  H31  1  0.06770606  0.12176616  0.98306817  1
  C  C32  1  0.44696720  0.01038075  0.04732837  1
  C  C33  1  0.58137256  0.51949230  0.97962356  1
  C  C34  1  0.44790202  0.92401797  0.04093313  1
  C  C35  1  0.58207970  0.60559420  0.98614350  1
  C  C36  1  0.50032880  0.88044430  0.99694085  1
  C  C37  1  0.53256965  0.64963160  0.03155684  1
  C  C38  1  0.54492396  0.92434390  0.95815676  1
  C  C39  1  0.48983833  0.60605280  0.07170741  1
  C  C40  1  0.53914330  0.01032567  0.96444935  1
  C  C41  1  0.49471924  0.52008750  0.06548141  1
  C  C42  1  0.50979580  0.78922950  0.99040437  1
  C  C43  1  0.52384216  0.74091506  0.03800558  1
  C  C44  1  0.39409342  0.05609226  0.09435773  1
  C  C45  1  0.62923545  0.47376220  0.93017083  1
  C  C46  1  0.63853430  0.64771074  0.94827384  1
  C  C47  1  0.39066350  0.88061010  0.07732308  1
  C  C48  1  0.51648630  0.22082134  0.82946400  1
  C  C49  1  0.50593317  0.31413680  0.26092488  1
  C  C50  1  0.51858413  0.21571632  0.76689790  1
  C  C51  1  0.52099967  0.24216092  0.29340342  1
  C  C52  1  0.50351760  0.28769220  0.73441935  1
  C  C53  1  0.52716340  0.22747731  0.10113566  1
  C  C54  1  0.49735388  0.30237573  0.92668720  1
  C  C55  1  0.43229940  0.27199492  0.63772930  1
  C  C56  1  0.59221786  0.25785810  0.39009348  1
  C  C57  1  0.58187175  0.28544903  0.64245590  1
  C  C58  1  0.53828500  0.16469070  0.26278558  1
  C  C59  1  0.44264550  0.24440406  0.38536692  1
  C  C60  1  0.58601975  0.27880454  0.57957757  1
  C  C61  1  0.43849748  0.25104848  0.44824530  1
  C  C62  1  0.51095060  0.26844487  0.54557110  1
  C  C63  1  0.51356660  0.26140820  0.48225170  1
  C  C64  1  0.43327210  0.26507090  0.57474875  1
  C  C65  1  0.59124300  0.26478985  0.45307368  1
  C  C66  1  0.66311230  0.28207397  0.55002636  1
  C  C67  1  0.36140710  0.24777131  0.47779685  1
  C  C68  1  0.66569245  0.27513933  0.48741272  1
  C  C69  1  0.48623216  0.36516234  0.76503730  1
  C  C70  1  0.35882470  0.25471374  0.54041004  1
  C  C71  1  0.55460830  0.08703607  0.29699424  1
  C  C72  1  0.46991783  0.44281697  0.73082876  1
  C  C73  1  0.54020250  0.16039120  0.19984652  1
  C  C74  1  0.48431465  0.36946183  0.82797620  1
  C  C75  1  0.52511560  0.23231485  0.16730614  1
  C  C76  1  0.49940154  0.29753820  0.86051667  1
  C  C77  1  0.50803100  0.30903170  0.19835867  1
  C  C78  1  0.35852912  0.23431080  0.00541846  1
  C  C79  1  0.67032063  0.29532468  0.02276159  1
  C  C80  1  0.98196440  0.24630760  0.96027530  1
  C  C81  1  0.04688564  0.28332797  0.06791060  1
  C  C82  1  0.03830879  0.31628704  0.97383684  1
  C  C83  1  0.99053085  0.21334933  0.05434347  1
  C  C84  1  0.26775220  0.24129543  0.00742652  1
  C  C85  1  0.76109790  0.28834012  0.02075940  1
  C  C86  1  0.04316395  0.18609206  0.99724230  1
  C  C87  1  0.98568547  0.34353640  0.03093671  1
  C  C88  1  0.09844378  0.25649837  0.01159045  1
  C  C89  1  0.93040590  0.27313712  0.01658961  1
  C  C90  1  0.19127555  0.24785088  0.00916927  1
  C  C91  1  0.83758460  0.28178380  0.01901637  1
  C  C92  1  0.94373393  0.22695611  0.89971364  1
  C  C93  1  0.08510605  0.30268034  0.12847254  1
  Br  Br94  1  0.48225480  0.42045920  0.30110475  1
  Br  Br95  1  0.54226280  0.10939293  0.72670760  1
  N  N96  1  0.49132302  0.05157220  0.00858991  1
  N  N97  1  0.53933690  0.47858983  0.01988716  1
  N  N98  1  0.50587380  0.28191072  0.67002350  1
  N  N99  1  0.51864350  0.24794236  0.35779926  1
  O  O100  1  0.42792052  0.08178449  0.14034438  1
  O  O101  1  0.30491665  0.06294489  0.08844879  1
  O  O102  1  0.70737830  0.46249960  0.93322440  1
  O  O103  1  0.58587503  0.45209630  0.87732375  1
  O  O104  1  0.68615910  0.69433767  0.97190523  1
  O  O105  1  0.63692516  0.63428116  0.88579880  1
  O  O106  1  0.38779283  0.89356744  0.13181545  1
  O  O107  1  0.34062076  0.82432544  0.04897128  1
  O  O108  1  0.66587480  0.26112092  0.36123726  1
  O  O109  1  0.65304430  0.29521224  0.67587566  1
  O  O110  1  0.37147330  0.23463985  0.35193655  1
  O  O111  1  0.51382260  0.29403198  0.07195034  1
  O  O112  1  0.51069460  0.23582104  0.95587250  1
  O  O113  1  0.54226330  0.15678453  0.07282911  1
  O  O114  1  0.48225390  0.37306845  0.95499360  1
  O  O115  1  0.35864258  0.26873216  0.66658550  1
  O  O116  1  0.88898295  0.28758493  0.87140810  1
  O  O117  1  0.06841735  0.37115437  0.15274331  1
  O  O118  1  0.13986644  0.24204352  0.15677088  1
  O  O119  1  0.40089157  0.16208977  0.99750555  1
  O  O120  1  0.62795850  0.36754580  0.03068040  1
  O  O121  1  0.39564732  0.30060902  0.01100372  1
  O  O122  1  0.63320270  0.22902654  0.01718218  1
  O  O123  1  0.96042260  0.15848204  0.87544286  1
