# generated using pymatgen
data_ZnH17C30N3O11
_symmetry_space_group_name_H-M   'P 1'
_cell_length_a   15.73998000
_cell_length_b   16.31947000
_cell_length_c   22.04135000
_cell_angle_alpha   92.88006000
_cell_angle_beta   91.74695000
_cell_angle_gamma   83.41985000
_symmetry_Int_Tables_number   1
_chemical_formula_structural   ZnH17C30N3O11
_chemical_formula_sum   'Zn2 H34 C60 N6 O22'
_cell_volume   5615.57487783
_cell_formula_units_Z   2
loop_
 _symmetry_equiv_pos_site_id
 _symmetry_equiv_pos_as_xyz
  1  'x, y, z'
loop_
 _atom_site_type_symbol
 _atom_site_label
 _atom_site_symmetry_multiplicity
 _atom_site_fract_x
 _atom_site_fract_y
 _atom_site_fract_z
 _atom_site_occupancy
  Zn  Zn0  1  0.90181060  0.58008415  0.77208330  1
  Zn  Zn1  1  0.00559819  0.42346108  0.72448650  1
  H  H2  1  0.07951462  0.64799020  0.19173262  1
  H  H3  1  0.81803477  0.35681397  0.30133024  1
  H  H4  1  0.87361690  0.30787015  0.20260543  1
  H  H5  1  0.66086787  0.71385056  0.51390350  1
  H  H6  1  0.89034206  0.59563875  0.59665700  1
  H  H7  1  0.24140250  0.29393837  0.98126066  1
  H  H8  1  0.00867176  0.40327490  0.89654434  1
  H  H9  1  0.95318610  0.45039615  0.99665360  1
  H  H10  1  0.02384913  0.69697240  0.29042542  1
  H  H11  1  0.68191500  0.67385010  0.30629802  1
  H  H12  1  0.94502497  0.55029010  0.49605880  1
  H  H13  1  0.21485782  0.33093336  0.18862110  1
  H  H14  1  0.98259145  0.12865382  0.86983280  1
  H  H15  1  0.92252590  0.87659770  0.62581290  1
  H  H16  1  0.97774863  0.87400126  0.81831455  1
  H  H17  1  0.92633700  0.13129792  0.67743605  1
  H  H18  1  0.80132496  0.28752065  0.67035973  1
  H  H19  1  0.86056910  0.21967368  0.61460850  1
  H  H20  1  0.88936310  0.33611926  0.55670685  1
  H  H21  1  0.77580935  0.34053582  0.56869670  1
  H  H22  1  0.83917510  0.40869305  0.61276550  1
  H  H23  1  0.04043770  0.78605026  0.88252470  1
  H  H24  1  0.10177982  0.71958077  0.82700710  1
  H  H25  1  0.06468415  0.59694960  0.88310430  1
  H  H26  1  0.12569404  0.66571580  0.92860335  1
  H  H27  1  0.01192665  0.66809260  0.93896540  1
  H  H28  1  0.91326576  0.72654370  0.62468946  1
  H  H29  1  0.99155250  0.27875897  0.87092110  1
  H  H30  1  0.96973604  0.00135179  0.67949990  1
  H  H31  1  0.93498590  0.00394555  0.81624300  1
  H  H32  1  0.44169757  0.41982034  0.65095675  1
  H  H33  1  0.46340233  0.58349600  0.84379010  1
  H  H34  1  0.47095275  0.59071416  0.66278150  1
  H  H35  1  0.43414718  0.41260220  0.83196540  1
  C  C36  1  0.74126065  0.69186354  0.62348760  1
  C  C37  1  0.69479920  0.66726935  0.39744288  1
  C  C38  1  0.20401800  0.33868498  0.09748539  1
  C  C39  1  0.97737250  0.38523287  0.13385968  1
  C  C40  1  0.05043912  0.50522006  0.13014647  1
  C  C41  1  0.01836252  0.53514310  0.18709284  1
  C  C42  1  0.96497047  0.48814106  0.21774640  1
  C  C43  1  0.94400330  0.41262427  0.19095922  1
  C  C44  1  0.03869235  0.61051870  0.21422867  1
  C  C45  1  0.00672543  0.63864990  0.27101126  1
  C  C46  1  0.95353500  0.59219116  0.30209740  1
  C  C47  1  0.93253010  0.51668910  0.27530882  1
  C  C48  1  0.87922690  0.46964285  0.30599755  1
  C  C49  1  0.85883210  0.39431083  0.27882022  1
  C  C50  1  0.89074725  0.36620858  0.22202861  1
  C  C51  1  0.92040640  0.61945397  0.35928237  1
  C  C52  1  0.84743917  0.49941072  0.36306150  1
  C  C53  1  0.75167310  0.64908700  0.45155130  1
  C  C54  1  0.72271140  0.67759840  0.50975790  1
  C  C55  1  0.77223320  0.65953160  0.56270474  1
  C  C56  1  0.85161120  0.61171466  0.55683845  1
  C  C57  1  0.88257277  0.58537820  0.49946243  1
  C  C58  1  0.83363640  0.60334500  0.44652632  1
  C  C59  1  0.14812160  0.35649276  0.04280284  1
  C  C60  1  0.17864454  0.32858157  0.98490370  1
  C  C61  1  0.12941313  0.34484680  0.93158025  1
  C  C62  1  0.04827714  0.38994297  0.93668455  1
  C  C63  1  0.01643205  0.41673607  0.99376816  1
  C  C64  1  0.06530678  0.40075886  0.04707645  1
  C  C65  1  0.16221118  0.31314883  0.87116957  1
  C  C66  1  0.94337570  0.24805287  0.72281724  1
  C  C67  1  0.96054010  0.75726510  0.77294300  1
  C  C68  1  0.94031554  0.16233976  0.72025440  1
  C  C69  1  0.96389186  0.84295255  0.77548410  1
  C  C70  1  0.95432840  0.11807176  0.77313906  1
  C  C71  1  0.95027520  0.88720940  0.72257410  1
  C  C72  1  0.97222020  0.16081658  0.82796496  1
  C  C73  1  0.93259525  0.84445095  0.66769830  1
  C  C74  1  0.97751290  0.24571220  0.82870700  1
  C  C75  1  0.92711115  0.75959307  0.66694530  1
  C  C76  1  0.94787997  0.02809185  0.77297740  1
  C  C77  1  0.95683930  0.97717494  0.72274880  1
  C  C78  1  0.85617970  0.28111336  0.63906740  1
  C  C79  1  0.83904520  0.34573108  0.59140280  1
  C  C80  1  0.04624820  0.72486484  0.85764400  1
  C  C81  1  0.06321549  0.65976980  0.90497065  1
  C  C82  1  0.14287789  0.39006758  0.72647270  1
  C  C83  1  0.76222200  0.61324870  0.76827420  1
  C  C84  1  0.46285933  0.54994375  0.70052220  1
  C  C85  1  0.44224063  0.45337257  0.79422470  1
  C  C86  1  0.44641876  0.45736247  0.69409530  1
  C  C87  1  0.45868120  0.54595387  0.80065160  1
  C  C88  1  0.22450273  0.41941783  0.73198056  1
  C  C89  1  0.68060094  0.58389090  0.76276666  1
  C  C90  1  0.39317638  0.56500673  0.74857440  1
  C  C91  1  0.51192355  0.43830955  0.74617250  1
  C  C92  1  0.37653357  0.47449103  0.74225587  1
  C  C93  1  0.52856636  0.52882534  0.75249094  1
  C  C94  1  0.29322633  0.44425568  0.73662347  1
  C  C95  1  0.61187350  0.55906070  0.75812340  1
  N  N96  1  0.03025484  0.43109724  0.10492156  1
  N  N97  1  0.86776830  0.57343320  0.38832778  1
  N  N98  1  0.96385260  0.28714925  0.77668220  1
  N  N99  1  0.94027394  0.71819335  0.71901600  1
  N  N100  1  0.57674116  0.36698234  0.74472916  1
  N  N101  1  0.32835886  0.63633394  0.75001770  1
  O  O102  1  0.61850650  0.68896480  0.40410390  1
  O  O103  1  0.68407790  0.75556620  0.62507500  1
  O  O104  1  0.77210710  0.65498704  0.67172810  1
  O  O105  1  0.95783830  0.31299570  0.10777859  1
  O  O106  1  0.10168731  0.54960820  0.10036921  1
  O  O107  1  0.94003487  0.69164115  0.38540167  1
  O  O108  1  0.79637146  0.45493147  0.39291054  1
  O  O109  1  0.13213897  0.35047358  0.82301030  1
  O  O110  1  0.22015870  0.24994764  0.86971825  1
  O  O111  1  0.72743475  0.66004260  0.33888370  1
  O  O112  1  0.28060257  0.31784204  0.09165028  1
  O  O113  1  0.16997230  0.34477255  0.15560943  1
  O  O114  1  0.93367230  0.29281560  0.67070395  1
  O  O115  1  0.96965444  0.71248260  0.82506615  1
  O  O116  1  0.07638478  0.43616033  0.72146827  1
  O  O117  1  0.82871520  0.56715596  0.77327860  1
  O  O118  1  0.13358907  0.31672215  0.72637680  1
  O  O119  1  0.77151090  0.68659410  0.76837015  1
  O  O120  1  0.55355810  0.29296616  0.73909790  1
  O  O121  1  0.65762377  0.37652457  0.74902420  1
  O  O122  1  0.35154180  0.71035016  0.75564900  1
  O  O123  1  0.24747620  0.62679170  0.74572270  1
