# generated using pymatgen
data_ZnH8C28N6(O8F)2
_symmetry_space_group_name_H-M   'P 1'
_cell_length_a   15.77511000
_cell_length_b   16.41081000
_cell_length_c   22.01273000
_cell_angle_alpha   92.33146000
_cell_angle_beta   91.17863000
_cell_angle_gamma   84.43390000
_symmetry_Int_Tables_number   1
_chemical_formula_structural   ZnH8C28N6(O8F)2
_chemical_formula_sum   'Zn2 H16 C56 N12 O32 F4'
_cell_volume   5666.35032403
_cell_formula_units_Z   2
loop_
 _symmetry_equiv_pos_site_id
 _symmetry_equiv_pos_as_xyz
  1  'x, y, z'
loop_
 _atom_site_type_symbol
 _atom_site_label
 _atom_site_symmetry_multiplicity
 _atom_site_fract_x
 _atom_site_fract_y
 _atom_site_fract_z
 _atom_site_occupancy
  Zn  Zn0  1  0.06917086  0.47015095  0.24998155  1
  Zn  Zn1  1  0.10988613  0.28677067  0.25993430  1
  H  H2  1  0.99353090  0.00439858  0.31356505  1
  H  H3  1  0.99085850  0.15348184  0.33080003  1
  H  H4  1  0.19227673  0.60601470  0.17892820  1
  H  H5  1  0.85366600  0.58411145  0.34055296  1
  H  H6  1  0.33055338  0.17516136  0.17023910  1
  H  H7  1  0.05093168  0.87404585  0.31689972  1
  H  H8  1  0.13249427  0.88552165  0.19297144  1
  H  H9  1  0.20094852  0.01132750  0.19010094  1
  H  H10  1  0.98286974  0.74815060  0.32014328  1
  H  H11  1  0.18953338  0.75512980  0.19601946  1
  H  H12  1  0.66951720  0.33364400  0.34766972  1
  H  H13  1  0.51042100  0.42820942  0.16279778  1
  H  H14  1  0.89930665  0.49303395  0.81118790  1
  H  H15  1  0.28223076  0.27016017  0.69833120  1
  H  H16  1  0.28092745  0.26653546  0.80864530  1
  H  H17  1  0.90064340  0.49672258  0.70090127  1
  C  C18  1  0.03675152  0.12195909  0.30003550  1
  C  C19  1  0.14655380  0.63753800  0.20982023  1
  C  C20  1  0.03921973  0.03691244  0.29070503  1
  C  C21  1  0.14403147  0.72260160  0.21906573  1
  C  C22  1  0.09907546  0.99610347  0.25071010  1
  C  C23  1  0.08436654  0.76340955  0.25920886  1
  C  C24  1  0.15465099  0.04172301  0.22135950  1
  C  C25  1  0.02903189  0.71777326  0.28877795  1
  C  C26  1  0.14990118  0.12653911  0.23094036  1
  C  C27  1  0.03385087  0.63293040  0.27927977  1
  C  C28  1  0.10451432  0.90690840  0.23606256  1
  C  C29  1  0.07888372  0.85261850  0.27380840  1
  C  C30  1  0.97437257  0.58872783  0.31327713  1
  C  C31  1  0.20966926  0.17069435  0.19716902  1
  C  C32  1  0.26526114  0.33104703  0.28248686  1
  C  C33  1  0.91467700  0.43080640  0.22798066  1
  C  C34  1  0.63368124  0.35500178  0.30643645  1
  C  C35  1  0.54625773  0.40685174  0.20403494  1
  C  C36  1  0.56250640  0.42655970  0.30328200  1
  C  C37  1  0.61743194  0.33529370  0.20718552  1
  C  C38  1  0.34900140  0.34887537  0.27514938  1
  C  C39  1  0.83094585  0.41297945  0.23531343  1
  C  C40  1  0.57844365  0.30370122  0.26361606  1
  C  C41  1  0.60149360  0.45815694  0.24685146  1
  C  C42  1  0.50787640  0.37468177  0.26172330  1
  C  C43  1  0.67206180  0.38717160  0.24874419  1
  C  C44  1  0.42046955  0.36240593  0.26900640  1
  C  C45  1  0.75946873  0.39944756  0.24146111  1
  C  C46  1  0.08538353  0.36753340  0.17360282  1
  C  C47  1  0.09363590  0.39348528  0.33580306  1
  C  C48  1  0.07736994  0.31839472  0.49558195  1
  C  C49  1  0.10223523  0.44409102  0.01430380  1
  C  C50  1  0.15666626  0.33737937  0.88225013  1
  C  C51  1  0.02480742  0.42571574  0.62728626  1
  C  C52  1  0.02174214  0.41721806  0.88314426  1
  C  C53  1  0.15966614  0.34576315  0.62638520  1
  C  C54  1  0.02120943  0.42031944  0.81934994  1
  C  C55  1  0.16031665  0.34285313  0.69016820  1
  C  C56  1  0.15878947  0.33862830  0.81842506  1
  C  C57  1  0.02275195  0.42459688  0.69109600  1
  C  C58  1  0.09039199  0.38055003  0.78687686  1
  C  C59  1  0.09116764  0.38268653  0.72266820  1
  C  C60  1  0.95330715  0.46195110  0.78737890  1
  C  C61  1  0.22825035  0.30126992  0.72216550  1
  C  C62  1  0.22750350  0.29918694  0.78553760  1
  C  C63  1  0.95406770  0.46407193  0.72398530  1
  C  C64  1  0.10894608  0.46004656  0.50255060  1
  C  C65  1  0.07290971  0.30183136  0.00656283  1
  C  C66  1  0.07648105  0.31948644  0.43175295  1
  C  C67  1  0.10241555  0.44260618  0.07809830  1
  C  C68  1  0.11020818  0.46237782  0.43878186  1
  C  C69  1  0.07103879  0.29903153  0.07024908  1
  C  C70  1  0.09342907  0.39176482  0.40291200  1
  C  C71  1  0.08627841  0.36974704  0.10653281  1
  C  C72  1  0.09304902  0.38837080  0.53088415  1
  C  C73  1  0.08799702  0.37403247  0.97860980  1
  N  N74  1  0.09099032  0.16540039  0.27013480  1
  N  N75  1  0.09257431  0.59408900  0.23995360  1
  N  N76  1  0.53289330  0.47785407  0.35566726  1
  N  N77  1  0.64704496  0.28399932  0.15480025  1
  N  N78  1  0.61704874  0.54284260  0.23798408  1
  N  N79  1  0.56289020  0.21901090  0.27248730  1
  N  N80  1  0.08881571  0.37625408  0.91324055  1
  N  N81  1  0.09255870  0.38666242  0.59628534  1
  N  N82  1  0.05479446  0.24818684  0.39688460  1
  N  N83  1  0.12215582  0.51431030  0.11336291  1
  N  N84  1  0.13154133  0.53556997  0.41120043  1
  N  N85  1  0.05052223  0.22523503  0.09737623  1
  O  O86  1  0.00063016  0.53060260  0.34348172  1
  O  O87  1  0.88812960  0.61789220  0.31452492  1
  O  O88  1  0.18369772  0.22893107  0.16698784  1
  O  O89  1  0.29588404  0.14139140  0.19612130  1
  O  O90  1  0.25176555  0.25588500  0.29069296  1
  O  O91  1  0.92817270  0.50596840  0.21977454  1
  O  O92  1  0.20588021  0.39082348  0.28046360  1
  O  O93  1  0.97405810  0.37102994  0.23000390  1
  O  O94  1  0.58705190  0.51555440  0.38899198  1
  O  O95  1  0.45315760  0.48408243  0.37064770  1
  O  O96  1  0.59288630  0.24629900  0.12147553  1
  O  O97  1  0.72678065  0.27777100  0.13981982  1
  O  O98  1  0.58871335  0.57885236  0.18906640  1
  O  O99  1  0.66515560  0.58040315  0.27634814  1
  O  O100  1  0.51478267  0.18145025  0.23411936  1
  O  O101  1  0.59122490  0.18300110  0.32140112  1
  O  O102  1  0.99945956  0.25544840  0.35232297  1
  O  O103  1  0.08319834  0.17523846  0.41354084  1
  O  O104  1  0.17661472  0.50797930  0.15855634  1
  O  O105  1  0.12875289  0.30891117  0.20074308  1
  O  O106  1  0.05017230  0.45203158  0.30865717  1
  O  O107  1  0.04139539  0.42436144  0.20437240  1
  O  O108  1  0.13752982  0.33658132  0.30502790  1
  O  O109  1  0.22204013  0.29800970  0.91313136  1
  O  O110  1  0.95944070  0.46507585  0.59640473  1
  O  O111  1  0.95558625  0.45445916  0.91481614  1
  O  O112  1  0.22570460  0.30833215  0.59467820  1
  O  O113  1  0.09250801  0.58689760  0.09668541  1
  O  O114  1  0.18630217  0.53111490  0.36747092  1
  O  O115  1  0.10294046  0.60731820  0.43367600  1
  O  O116  1  0.99501290  0.22858666  0.14056980  1
  O  O117  1  0.08063342  0.15395184  0.07490957  1
  F  F118  1  0.05943631  0.25013435  0.52373177  1
  F  F119  1  0.11936543  0.51292340  0.98653674  1
  F  F120  1  0.12652913  0.52666247  0.53745323  1
  F  F121  1  0.05662967  0.23511258  0.97131085  1
