# generated using pymatgen
data_CuH13C28N5O13F
_symmetry_space_group_name_H-M   'P 1'
_cell_length_a   15.76630000
_cell_length_b   16.33716000
_cell_length_c   22.07200000
_cell_angle_alpha   93.02299000
_cell_angle_beta   91.88420000
_cell_angle_gamma   83.17608000
_symmetry_Int_Tables_number   1
_chemical_formula_structural   CuH13C28N5O13F
_chemical_formula_sum   'Cu2 H26 C56 N10 O26 F2'
_cell_volume   5635.06960441
_cell_formula_units_Z   2
loop_
 _symmetry_equiv_pos_site_id
 _symmetry_equiv_pos_as_xyz
  1  'x, y, z'
loop_
 _atom_site_type_symbol
 _atom_site_label
 _atom_site_symmetry_multiplicity
 _atom_site_fract_x
 _atom_site_fract_y
 _atom_site_fract_z
 _atom_site_occupancy
  Cu  Cu0  1  0.25763620  0.45682320  0.44810152  1
  Cu  Cu1  1  0.12617548  0.38877326  0.39485016  1
  H  H2  1  0.56284450  0.56675680  0.48534060  1
  H  H3  1  0.81387466  0.28133770  0.35484245  1
  H  H4  1  0.96931240  0.27174723  0.34893040  1
  H  H5  1  0.40741760  0.57634690  0.49124753  1
  H  H6  1  0.84555197  0.48523518  0.54464110  1
  H  H7  1  0.53117263  0.36290067  0.29553086  1
  H  H8  1  0.42785877  0.31522936  0.33746827  1
  H  H9  1  0.94885640  0.53289175  0.50268290  1
  H  H10  1  0.95537190  0.27942944  0.32894742  1
  H  H11  1  0.42910656  0.56978166  0.51218580  1
  H  H12  1  0.18576938  0.34525895  0.46517637  1
  H  H13  1  0.19870888  0.50395244  0.37595692  1
  H  H14  1  0.01308318  0.08287096  0.37144595  1
  H  H15  1  0.37139532  0.76634026  0.46968730  1
  H  H16  1  0.25416943  0.13995576  0.44708237  1
  H  H17  1  0.13030899  0.70925546  0.39405096  1
  H  H18  1  0.03085160  0.59050940  0.96786960  1
  H  H19  1  0.33757004  0.25284633  0.86803750  1
  H  H20  1  0.08096667  0.61597460  0.86843760  1
  H  H21  1  0.28970757  0.22876350  0.96836984  1
  H  H22  1  0.40663540  0.49684763  0.75489485  1
  H  H23  1  0.15541379  0.46613377  0.16129482  1
  H  H24  1  0.22290711  0.47630286  0.56945807  1
  H  H25  1  0.96373220  0.25281460  0.19079792  1
  H  H26  1  0.13860458  0.42479480  0.70639974  1
  H  H27  1  0.01363805  0.28601006  0.04015577  1
  C  C28  1  0.30222198  0.48045412  0.43090048  1
  C  C29  1  0.07449543  0.36765224  0.40927383  1
  C  C30  1  0.39443332  0.47726816  0.42378166  1
  C  C31  1  0.98228420  0.37083822  0.41639265  1
  C  C32  1  0.43713522  0.41984674  0.38178030  1
  C  C33  1  0.93959194  0.42826830  0.45839465  1
  C  C34  1  0.52638406  0.41844508  0.37563807  1
  C  C35  1  0.85033370  0.42966044  0.46454105  1
  C  C36  1  0.57162297  0.46845222  0.41567203  1
  C  C37  1  0.80510575  0.37965196  0.42450680  1
  C  C38  1  0.52812210  0.52657735  0.45573923  1
  C  C39  1  0.84859690  0.32151820  0.38443902  1
  C  C40  1  0.43990523  0.53171843  0.45923784  1
  C  C41  1  0.93681380  0.31637704  0.38094040  1
  C  C42  1  0.66512250  0.46075183  0.41626826  1
  C  C43  1  0.71159667  0.38734272  0.42391476  1
  C  C44  1  0.03120884  0.21155060  0.37986380  1
  C  C45  1  0.35326964  0.63766056  0.46126950  1
  C  C46  1  0.16302866  0.24338269  0.42428500  1
  C  C47  1  0.22144972  0.60582864  0.41684827  1
  C  C48  1  0.05671962  0.12670505  0.38651112  1
  C  C49  1  0.32775870  0.72250620  0.45462212  1
  C  C50  1  0.19096808  0.15842247  0.42814568  1
  C  C51  1  0.19351037  0.69078860  0.41298765  1
  C  C52  1  0.13774988  0.09837663  0.41002393  1
  C  C53  1  0.24672854  0.75083460  0.43110928  1
  C  C54  1  0.21818307  0.84183115  0.42556995  1
  C  C55  1  0.16629535  0.00738001  0.41556332  1
  C  C56  1  0.37642694  0.51889867  0.54534316  1
  C  C57  1  0.00567672  0.32969695  0.29517078  1
  C  C58  1  0.17469090  0.32992655  0.03359508  1
  C  C59  1  0.19658767  0.51517254  0.80344660  1
  C  C60  1  0.08170671  0.45685124  0.03278577  1
  C  C61  1  0.28574637  0.38590223  0.80273400  1
  C  C62  1  0.10945552  0.47283214  0.97563630  1
  C  C63  1  0.25906223  0.37059185  0.86030050  1
  C  C64  1  0.17048495  0.41477495  0.94699970  1
  C  C65  1  0.19879127  0.42910660  0.88924646  1
  C  C66  1  0.20334816  0.34247756  0.97600260  1
  C  C67  1  0.16686584  0.50197120  0.86060333  1
  C  C68  1  0.07771692  0.54502820  0.94662250  1
  C  C69  1  0.29111668  0.29857287  0.88944036  1
  C  C70  1  0.10642480  0.55963385  0.88965990  1
  C  C71  1  0.26371720  0.28477907  0.94692970  1
  C  C72  1  0.36708894  0.49305853  0.71397910  1
  C  C73  1  0.11395644  0.41940080  0.16852915  1
  C  C74  1  0.40040460  0.50593190  0.65811060  1
  C  C75  1  0.08640271  0.40917110  0.22664618  1
  C  C76  1  0.34759670  0.50130010  0.60520875  1
  C  C77  1  0.03289119  0.34731418  0.23507917  1
  C  C78  1  0.26408133  0.48055404  0.60951830  1
  C  C79  1  0.00517838  0.30005210  0.18491590  1
  C  C80  1  0.23214011  0.46454410  0.66499840  1
  C  C81  1  0.02993653  0.31260994  0.12669826  1
  C  C82  1  0.28421113  0.47205326  0.71772760  1
  C  C83  1  0.08598885  0.37220750  0.11885881  1
  N  N84  1  0.13911374  0.86892160  0.40270945  1
  N  N85  1  0.11386078  0.94949620  0.39784127  1
  N  N86  1  0.27061924  0.89971715  0.44330260  1
  N  N87  1  0.08348105  0.27086973  0.39929370  1
  N  N88  1  0.30099723  0.57834140  0.44183960  1
  N  N89  1  0.24537288  0.98030250  0.43842185  1
  N  N90  1  0.11456351  0.38646096  0.06022394  1
  N  N91  1  0.25431790  0.45714400  0.77584190  1
  N  N92  1  0.48835787  0.51999210  0.65602800  1
  N  N93  1  0.10988478  0.46442350  0.27544820  1
  O  O94  1  0.25773704  0.55201465  0.44242500  1
  O  O95  1  0.11898053  0.29609170  0.39774930  1
  O  O96  1  0.26799920  0.41157335  0.42420205  1
  O  O97  1  0.10871828  0.43653306  0.41597232  1
  O  O98  1  0.80608600  0.47692084  0.50963270  1
  O  O99  1  0.57064290  0.37118238  0.33055094  1
  O  O100  1  0.39044335  0.36695972  0.34739643  1
  O  O101  1  0.98627420  0.48114666  0.49277790  1
  O  O102  1  0.95208144  0.23141599  0.35326380  1
  O  O103  1  0.43239700  0.61779520  0.48786953  1
  O  O104  1  0.21923263  0.29647600  0.44642538  1
  O  O105  1  0.16525893  0.55273914  0.39471720  1
  O  O106  1  0.33265892  0.49943686  0.49774668  1
  O  O107  1  0.04957945  0.34888512  0.34262323  1
  O  O108  1  0.93839250  0.29358515  0.29969037  1
  O  O109  1  0.44384593  0.55473685  0.54067960  1
  O  O110  1  0.20627858  0.26196498  0.06288064  1
  O  O111  1  0.16832702  0.58515090  0.77549680  1
  O  O112  1  0.02225337  0.51080730  0.06077933  1
  O  O113  1  0.34245133  0.33023694  0.77362090  1
  O  O114  1  0.54103320  0.46992055  0.62339730  1
  O  O115  1  0.51907920  0.57138926  0.69557726  1
  O  O116  1  0.05105380  0.50484955  0.30904270  1
  O  O117  1  0.18682875  0.48590553  0.27917385  1
  O  O118  1  0.15062259  0.44159374  0.66545030  1
  O  O119  1  0.99790770  0.26583720  0.07925582  1
  F  F120  1  0.67293600  0.31792226  0.42924940  1
  F  F121  1  0.70378166  0.53018326  0.41092970  1
