# CIF file from MOFDiff structure generation
# Relaxed using LAMMPS UFF force field
# Generation date: 2025-12-26 06:08:15
# Note: Computationally generated structure
#
# generated using pymatgen
data_ZnH11C22I(NO)4
_chemical_name_common   'Zinc-based MOF (computationally generated)'
_chemical_name_systematic   ?
_audit_creation_method   'MOFDiff + LAMMPS UFF relaxation'
_chemical_name_systematic   ?
_audit_creation_method   'MOFDiff + LAMMPS UFF relaxation'
_chemical_name_systematic   ?
_audit_creation_method   'MOFDiff + LAMMPS UFF relaxation'
_chemical_name_systematic   ?
_audit_creation_method   'MOFDiff + LAMMPS UFF relaxation'
_chemical_name_systematic   ?
_audit_creation_method   'MOFDiff + LAMMPS UFF relaxation'
_symmetry_space_group_name_H-M   'P 1'
_cell_length_a   12.46620860
_cell_length_b   13.77735854
_cell_length_c   15.88871531
_cell_angle_alpha   80.36948116
_cell_angle_beta   80.51475311
_cell_angle_gamma   88.34927120
_symmetry_Int_Tables_number   1
_chemical_formula_structural   ZnH11C22I(NO)4
_chemical_formula_sum   'Zn2 H22 C44 I2 N8 O8'
_cell_volume   2653.66534685
_cell_formula_units_Z   2
loop_
 _symmetry_equiv_pos_site_id
 _symmetry_equiv_pos_as_xyz
  1  'x, y, z'
loop_
 _atom_site_type_symbol
 _atom_site_label
 _atom_site_symmetry_multiplicity
 _atom_site_fract_x
 _atom_site_fract_y
 _atom_site_fract_z
 _atom_site_occupancy
 _atom_site_U_iso_or_equiv
  C  C0  1  0.54480175  0.69629875  0.81522500  1
  C  C1  1  0.88094013  0.62447250  0.81243703  1
  C  C2  1  0.75825325  0.62369375  0.81233365  1
  C  C3  1  0.67622400  0.69805750  0.81953085  1
  C  C4  1  0.74743900  0.77447325  0.82771265  1
  C  C5  1  0.86764970  0.77578150  0.83045515  1
  C  C6  1  0.95296612  0.70154575  0.82677652  1
  C  C7  1  0.92823920  0.54389475  0.78643425  1
  C  C8  1  0.71764650  0.54286100  0.79680200  1
  C  C9  1  0.77957600  0.47122775  0.76631925  1
  C  C10  1  0.88381070  0.47266025  0.75814025  1
  C  C11  1  0.73431150  0.39337250  0.74713775  1
  C  C12  1  0.43694850  0.26597600  0.81729535  1
  C  C13  1  0.53106350  0.23609150  0.82381360  1
  C  C14  1  0.35084600  0.83136783  0.96000887  1
  C  C15  1  0.27300400  0.64915650  0.52977950  1
  C  C16  1  0.08722000  0.70717400  0.82974653  1
  C  C17  1  0.29853000  0.57642525  0.67866850  1
  C  C18  1  0.26770850  0.56791150  0.59547800  1
  C  C19  1  0.02340225  0.51769800  0.79143325  1
  C  C20  1  0.20472125  0.14879750  0.82937705  1
  C  C21  1  0.39896550  0.08429025  0.79556825  1
  C  C22  1  0.37105175  0.19131825  0.81072692  1
  C  C23  1  0.27134775  0.22452475  0.83219955  1
  C  C24  1  0.24217425  0.32917125  0.85221923  1
  C  C25  1  0.40920650  0.36577950  0.83129728  1
  C  C26  1  0.11037425  0.17248250  0.82347965  1
  C  C27  1  0.25583525  0.47676350  0.57339025  1
  C  C28  1  0.22799475  0.04862550  0.81877720  1
  C  C29  1  0.37895125  0.84018488  0.04434350  1
  C  C30  1  0.36941550  0.94607818  0.14981575  1
  C  C31  1  0.39699400  0.93055257  0.06327950  1
  C  C32  1  0.36963225  0.76084900  0.11197725  1
  C  C33  1  0.35210175  0.77409600  0.20242125  1
  C  C34  1  0.34131750  0.86913158  0.22056600  1
  C  C35  1  0.33927400  0.69750625  0.27586700  1
  C  C36  1  0.30590850  0.71522500  0.36568700  1
  C  C37  1  0.28583825  0.80980192  0.37987575  1
  C  C38  1  0.30672075  0.88528890  0.30850800  1
  C  C39  1  0.29273500  0.63792250  0.43875375  1
  C  C40  1  0.30625675  0.54361550  0.41891525  1
  C  C41  1  0.36089050  0.60323050  0.26137600  1
  C  C42  1  0.28271175  0.46513825  0.48691875  1
  C  C43  1  0.34086950  0.52798550  0.33162300  1
  H  H44  1  0.71070025  0.84013892  0.83708625  1
  H  H45  1  0.88773305  0.83818443  0.83744332  1
  H  H46  1  0.51340825  0.99429806  0.75924900  1
  H  H47  1  0.64079925  0.53611500  0.80434090  1
  H  H48  1  0.92554543  0.41362300  0.73746375  1
  H  H49  1  0.69790800  0.42471300  0.69546600  1
  H  H50  1  0.79163350  0.33789175  0.72397200  1
  H  H51  1  0.68550575  0.36816025  0.80605985  1
  H  H52  1  0.53236200  0.44085050  0.79208150  1
  H  H53  1  0.47553500  0.41536225  0.91519010  1
  H  H54  1  0.53949425  0.11697025  0.72207050  1
  H  H55  1  0.26954375  0.71443850  0.55174850  1
  H  H56  1  0.09523225  0.33478375  0.86090813  1
  H  H57  1  0.13274600  0.30257350  0.96200055  1
  H  H58  1  0.17074400  0.00447150  0.81465810  1
  H  H59  1  0.29283975  0.95674385  0.32452350  1
  H  H60  1  0.25816625  0.82315140  0.43979625  1
  H  H61  1  0.37068375  0.69513250  0.09146800  1
  H  H62  1  0.39320150  0.58762700  0.19584375  1
  H  H63  1  0.35567175  0.45677875  0.31523800  1
  H  H64  1  0.28186175  0.39399225  0.47153025  1
  H  H65  1  0.37415775  0.01785925  0.16262275  1
  I  I66  1  0.50657725  0.02153475  0.97085795  1
  I  I67  1  0.16709725  0.36330775  0.65660600  1
  N  N68  1  0.62484800  0.20768750  0.83045738  1
  N  N69  1  0.48109550  0.41794475  0.84875645  1
  N  N70  1  0.49663175  0.06387550  0.75937450  1
  N  N71  1  0.11927800  0.49069800  0.79623600  1
  N  N72  1  0.31279900  0.40917775  0.83815970  1
  N  N73  1  0.14971050  0.34122875  0.90008100  1
  N  N74  1  0.01016175  0.19563325  0.81710342  1
  N  N75  1  0.32430700  0.00621775  0.80834063  1
  O  O76  1  0.47638850  0.61378700  0.82924833  1
  O  O77  1  0.48810425  0.78075125  0.79680175  1
  O  O78  1  0.15486725  0.62756825  0.85016635  1
  O  O79  1  0.36786225  0.89966005  0.89412748  1
  O  O80  1  0.29639600  0.75851875  0.94668285  1
  O  O81  1  0.32823800  0.65610475  0.70064600  1
  O  O82  1  0.14898000  0.79236025  0.81579750  1
  O  O83  1  0.30726075  0.50241650  0.73597750  1
  Zn  Zn84  1  0.32255275  0.82385960  0.82938425  1
  Zn  Zn85  1  0.31600550  0.58173550  0.81470792  1
