# CIF file from MOFDiff structure generation
# Relaxed using LAMMPS UFF force field
# Generation date: 2025-12-26 06:08:15
# Note: Computationally generated structure
#
# generated using pymatgen
data_ZnC11I2(BrO2)2
_chemical_name_common   'Zinc-based MOF (computationally generated)'
_chemical_name_systematic   ?
_audit_creation_method   'MOFDiff + LAMMPS UFF relaxation'
_chemical_name_systematic   ?
_audit_creation_method   'MOFDiff + LAMMPS UFF relaxation'
_chemical_name_systematic   ?
_audit_creation_method   'MOFDiff + LAMMPS UFF relaxation'
_chemical_name_systematic   ?
_audit_creation_method   'MOFDiff + LAMMPS UFF relaxation'
_chemical_name_systematic   ?
_audit_creation_method   'MOFDiff + LAMMPS UFF relaxation'
_symmetry_space_group_name_H-M   'P 1'
_cell_length_a   12.26273956
_cell_length_b   16.53256519
_cell_length_c   17.37063086
_cell_angle_alpha   88.76891486
_cell_angle_beta   89.62637329
_cell_angle_gamma   85.38786840
_symmetry_Int_Tables_number   1
_chemical_formula_structural   ZnC11I2(BrO2)2
_chemical_formula_sum   'Zn2 C22 I4 Br4 O8'
_cell_volume   3509.37256016
_cell_formula_units_Z   2
loop_
 _symmetry_equiv_pos_site_id
 _symmetry_equiv_pos_as_xyz
  1  'x, y, z'
loop_
 _atom_site_type_symbol
 _atom_site_label
 _atom_site_symmetry_multiplicity
 _atom_site_fract_x
 _atom_site_fract_y
 _atom_site_fract_z
 _atom_site_occupancy
 _atom_site_U_iso_or_equiv
  Br  Br0  1  0.37921800  0.89769370  0.09857645  1
  Br  Br1  1  0.48361400  0.80857640  0.29933000  1
  Br  Br2  1  0.81059700  0.01401400  0.09290820  1
  Br  Br3  1  0.70967000  0.09912800  0.29500800  1
  C  C4  1  0.50380200  0.93042620  0.04022830  1
  C  C5  1  0.54798300  0.89203170  0.35615400  1
  C  C6  1  0.59566500  0.95518440  0.16242965  1
  C  C7  1  0.59608900  0.95467970  0.23187600  1
  C  C8  1  0.68593750  0.98030165  0.03779810  1
  C  C9  1  0.59507200  0.95543420  0.07926360  1
  C  C10  1  0.59643300  0.95378625  0.31512600  1
  C  C11  1  0.04143560  0.94346000  0.68918400  1
  C  C12  1  0.15651308  0.93017820  0.68972200  1
  C  C13  1  0.25491897  0.92075240  0.69093400  1
  C  C14  1  0.37206600  0.91253610  0.69322800  1
  C  C15  1  0.54543900  0.89158230  0.43736600  1
  C  C16  1  0.94329200  0.95590450  0.68951800  1
  C  C17  1  0.82663400  0.97123180  0.69091400  1
  C  C18  1  0.59617100  0.95156160  0.55983200  1
  C  C19  1  0.59659400  0.95213600  0.47837800  1
  C  C20  1  0.50339000  0.92971790  0.95913600  1
  C  C21  1  0.59478800  0.95308225  0.83198000  1
  C  C22  1  0.68596700  0.97998970  0.95667600  1
  C  C23  1  0.59468175  0.95440380  0.91705800  1
  C  C24  1  0.64520300  0.01461600  0.35431800  1
  C  C25  1  0.64793400  0.01339400  0.43552000  1
  I  I26  1  0.44807500  0.80468580  0.49349500  1
  I  I27  1  0.36149000  0.89480045  0.90100400  1
  I  I28  1  0.74582450  0.09881800  0.48894200  1
  I  I29  1  0.82735600  0.01456800  0.89499000  1
  O  O30  1  0.42774500  0.84006165  0.69645400  1
  O  O31  1  0.42850000  0.97780990  0.69391400  1
  O  O32  1  0.59251700  0.88395420  0.60079400  1
  O  O33  1  0.76197900  0.91065825  0.69525800  1
  O  O34  1  0.58663425  0.88494415  0.79533800  1
  O  O35  1  0.77969600  0.04649800  0.68996600  1
  O  O36  1  0.59943100  0.01850800  0.59888600  1
  O  O37  1  0.60334300  0.01978400  0.79052800  1
  Zn  Zn38  1  0.53044800  0.90255560  0.69692600  1
  Zn  Zn39  1  0.65796600  0.99383391  0.69443000  1
