# CIF file from MOFDiff structure generation
# Relaxed using LAMMPS UFF force field
# Generation date: 2025-12-26 06:08:15
# Note: Computationally generated structure
#
# generated using pymatgen
data_ZnH9C15(NO3)2
_chemical_name_common   'Zinc-based MOF (computationally generated)'
_chemical_name_systematic   ?
_audit_creation_method   'MOFDiff + LAMMPS UFF relaxation'
_chemical_name_systematic   ?
_audit_creation_method   'MOFDiff + LAMMPS UFF relaxation'
_chemical_name_systematic   ?
_audit_creation_method   'MOFDiff + LAMMPS UFF relaxation'
_chemical_name_systematic   ?
_audit_creation_method   'MOFDiff + LAMMPS UFF relaxation'
_chemical_name_systematic   ?
_audit_creation_method   'MOFDiff + LAMMPS UFF relaxation'
_symmetry_space_group_name_H-M   'P 1'
_cell_length_a   11.38823532
_cell_length_b   12.13423415
_cell_length_c   13.93340118
_cell_angle_alpha   97.58688626
_cell_angle_beta   96.14584974
_cell_angle_gamma   90.53144532
_symmetry_Int_Tables_number   1
_chemical_formula_structural   ZnH9C15(NO3)2
_chemical_formula_sum   'Zn2 H18 C30 N4 O12'
_cell_volume   1897.06177533
_cell_formula_units_Z   2
loop_
 _symmetry_equiv_pos_site_id
 _symmetry_equiv_pos_as_xyz
  1  'x, y, z'
loop_
 _atom_site_type_symbol
 _atom_site_label
 _atom_site_symmetry_multiplicity
 _atom_site_fract_x
 _atom_site_fract_y
 _atom_site_fract_z
 _atom_site_occupancy
 _atom_site_U_iso_or_equiv
  C  C0  1  0.57224900  0.08972510  0.88120577  1
  C  C1  1  0.56108300  0.20509867  0.90736415  1
  C  C2  1  0.38801267  0.18451230  0.96945752  1
  C  C3  1  0.49034717  0.01518942  0.89291727  1
  C  C4  1  0.39946133  0.06317600  0.94091737  1
  C  C5  1  0.66125650  0.26435368  0.90023488  1
  C  C6  1  0.45293867  0.49853825  0.74588933  1
  C  C7  1  0.05873877  0.47288125  0.88292288  1
  C  C8  1  0.20377317  0.46008700  0.88371473  1
  C  C9  1  0.44687850  0.50878500  0.55987217  1
  C  C10  1  0.44953067  0.49703575  0.64590133  1
  C  C11  1  0.01654612  0.58050700  0.88075997  1
  C  C12  1  0.68302067  0.59423050  0.95513455  1
  C  C13  1  0.32151533  0.98710525  0.95786815  1
  C  C14  1  0.34231283  0.87255400  0.94453318  1
  C  C15  1  0.50213600  0.89407150  0.86639418  1
  C  C16  1  0.27058233  0.80948350  0.98754606  1
  C  C17  1  0.59867717  0.85067925  0.80727873  1
  C  C18  1  0.08559737  0.67064850  0.91789072  1
  C  C19  1  0.85651050  0.46340575  0.94287450  1
  C  C20  1  0.96076950  0.40963350  0.90699327  1
  C  C21  1  0.91391267  0.63874525  0.91361568  1
  C  C22  1  0.82342217  0.57673175  0.94964752  1
  C  C23  1  0.99246117  0.72607250  0.95599768  1
  C  C24  1  0.29835983  0.22071550  0.02380783  1
  C  C25  1  0.44468217  0.53759425  0.37340917  1
  C  C26  1  0.44553667  0.52288325  0.47454133  1
  C  C27  1  0.43301683  0.55367700  0.09531017  1
  C  C28  1  0.43700267  0.54959700  0.18386983  1
  C  C29  1  0.44217367  0.54595600  0.28693750  1
  H  H30  1  0.24535850  0.01449371  0.99015499  1
  H  H31  1  0.64958050  0.05885633  0.85240263  1
  H  H32  1  0.67417850  0.25470457  0.82806662  1
  H  H33  1  0.64109500  0.34284425  0.92852422  1
  H  H34  1  0.21747117  0.20538102  0.97516485  1
  H  H35  1  0.14447312  0.64422700  0.97927398  1
  H  H36  1  0.73071317  0.23266410  0.94802860  1
  H  H37  1  0.18842332  0.84171675  0.96109318  1
  H  H38  1  0.29275767  0.72452200  0.96607155  1
  H  H39  1  0.59389033  0.76096250  0.77587367  1
  H  H40  1  0.60478683  0.90064025  0.74736033  1
  H  H41  1  0.66861983  0.86364375  0.84750282  1
  H  H42  1  0.79552017  0.41586525  0.96811130  1
  H  H43  1  0.95720033  0.32408375  0.90039845  1
  H  H44  1  0.29897083  0.30762900  0.05938967  1
  H  H45  1  0.28618167  0.17063822  0.07410217  1
  H  H46  1  0.27883733  0.82625225  0.06430050  1
  H  H47  1  0.99894000  0.74005600  0.03739983  1
  N  N48  1  0.46590567  0.25897637  0.93958723  1
  N  N49  1  0.42980967  0.82139550  0.90159183  1
  N  N50  1  0.13186495  0.71719950  0.83379070  1
  N  N51  1  0.98170717  0.83326275  0.91564710  1
  O  O52  1  0.45412500  0.40671525  0.78998550  1
  O  O53  1  0.26581283  0.36951175  0.86812668  1
  O  O54  1  0.27865100  0.55097275  0.90516882  1
  O  O55  1  0.45551017  0.59821175  0.79661767  1
  O  O56  1  0.60684833  0.50605475  0.94165060  1
  O  O57  1  0.22268983  0.66860425  0.79659217  1
  O  O58  1  0.05220327  0.72425175  0.76048517  1
  O  O59  1  0.01379484  0.92317550  0.97933760  1
  O  O60  1  0.62433317  0.68591925  0.95287560  1
  O  O61  1  0.87605250  0.84812150  0.87558758  1
  O  O62  1  0.39023317  0.46770275  0.03484717  1
  O  O63  1  0.47399317  0.64004150  0.06077950  1
  Zn  Zn64  1  0.44184883  0.40349275  0.91487277  1
  Zn  Zn65  1  0.44880033  0.64768800  0.92395470  1
