# CIF file from MOFDiff structure generation
# Relaxed using LAMMPS UFF force field
# Generation date: 2025-12-26 06:08:15
# Note: Computationally generated structure
#
# generated using pymatgen
data_Cu2H25C34(NO2)5
_chemical_name_common   'Copper-based MOF (computationally generated)'
_chemical_name_systematic   ?
_audit_creation_method   'MOFDiff + LAMMPS UFF relaxation'
_chemical_name_systematic   ?
_audit_creation_method   'MOFDiff + LAMMPS UFF relaxation'
_chemical_name_systematic   ?
_audit_creation_method   'MOFDiff + LAMMPS UFF relaxation'
_chemical_name_systematic   ?
_audit_creation_method   'MOFDiff + LAMMPS UFF relaxation'
_chemical_name_systematic   ?
_audit_creation_method   'MOFDiff + LAMMPS UFF relaxation'
_symmetry_space_group_name_H-M   'P 1'
_cell_length_a   12.06205532
_cell_length_b   13.71458169
_cell_length_c   14.08732836
_cell_angle_alpha   88.65931361
_cell_angle_beta   85.60820260
_cell_angle_gamma   82.24932952
_symmetry_Int_Tables_number   1
_chemical_formula_structural   Cu2H25C34(NO2)5
_chemical_formula_sum   'Cu2 H25 C34 N5 O10'
_cell_volume   2302.13940078
_cell_formula_units_Z   1
loop_
 _symmetry_equiv_pos_site_id
 _symmetry_equiv_pos_as_xyz
  1  'x, y, z'
loop_
 _atom_site_type_symbol
 _atom_site_label
 _atom_site_symmetry_multiplicity
 _atom_site_fract_x
 _atom_site_fract_y
 _atom_site_fract_z
 _atom_site_occupancy
 _atom_site_U_iso_or_equiv
  C  C0  1  0.29370125  0.17338830  0.27693400  1
  C  C1  1  0.41432300  0.01384389  0.26124800  1
  C  C2  1  0.10893760  0.05400960  0.34461200  1
  C  C3  1  0.30787000  0.06436240  0.28683200  1
  C  C4  1  0.16283550  0.37266200  0.00062611  1
  C  C5  1  0.17033935  0.37377400  0.10177810  1
  C  C6  1  0.17906575  0.37470200  0.44065800  1
  C  C7  1  0.21612890  0.00951767  0.30868600  1
  C  C8  1  0.01353748  0.00972203  0.32606800  1
  C  C9  1  0.63484500  0.35364400  0.27901600  1
  C  C10  1  0.71173500  0.41603600  0.25979600  1
  C  C11  1  0.82733700  0.38693800  0.28070200  1
  C  C12  1  0.51959050  0.38127800  0.25591200  1
  C  C13  1  0.63338500  0.25146800  0.41069200  1
  C  C14  1  0.71771500  0.28742800  0.47357600  1
  C  C15  1  0.06225740  0.59188000  0.27891200  1
  C  C16  1  0.05600710  0.70056200  0.28539400  1
  C  C17  1  0.33839500  0.86034200  0.25893800  1
  C  C18  1  0.23142480  0.90628000  0.29272600  1
  C  C19  1  0.13720960  0.85352000  0.30285200  1
  C  C20  1  0.02871610  0.90829600  0.30214600  1
  C  C21  1  0.14664180  0.74862000  0.31085000  1
  C  C22  1  0.69346900  0.51102400  0.12423295  1
  C  C23  1  0.80667300  0.54308000  0.08988365  1
  C  C24  1  0.42918600  0.91289600  0.24745000  1
  C  C25  1  0.93926400  0.85899100  0.27988600  1
  C  C26  1  0.95440300  0.75769600  0.26765000  1
  C  C27  1  0.17368935  0.37346000  0.54279800  1
  C  C28  1  0.16895635  0.37271000  0.62862200  1
  C  C29  1  0.16032440  0.37220200  0.91523000  1
  C  C30  1  0.16395765  0.37219600  0.72914800  1
  C  C31  1  0.16108070  0.37204600  0.81490600  1
  C  C32  1  0.68993800  0.26470900  0.57861000  1
  C  C33  1  0.81883500  0.55370700  0.98172800  1
  Cu  Cu34  1  0.07040870  0.41953600  0.26979600  1
  Cu  Cu35  1  0.29453115  0.33213800  0.26467000  1
  H  H36  1  0.03298205  0.15704980  0.43292000  1
  H  H37  1  0.16913410  0.15363160  0.43313400  1
  H  H38  1  0.48546200  0.05342990  0.24590200  1
  H  H39  1  0.68358200  0.43948800  0.09147425  1
  H  H40  1  0.87562600  0.48765000  0.11251215  1
  H  H41  1  0.54710400  0.28987600  0.42915950  1
  H  H42  1  0.90049900  0.13242360  0.34458600  1
  H  H43  1  0.79565150  0.25441800  0.45417400  1
  H  H44  1  0.71576725  0.36828000  0.46462800  1
  H  H45  1  0.83511600  0.03383420  0.33308200  1
  H  H46  1  0.62938100  0.17230365  0.42690600  1
  H  H47  1  0.29044060  0.73353800  0.38896400  1
  H  H48  1  0.23814150  0.63351000  0.36749600  1
  H  H49  1  0.35264400  0.78405600  0.23804600  1
  H  H50  1  0.62559650  0.56566800  0.09818815  1
  H  H51  1  0.88769100  0.72513600  0.24932600  1
  H  H52  1  0.86156900  0.89551400  0.26997800  1
  H  H53  1  0.50638525  0.87770600  0.22433400  1
  H  H54  1  0.81447600  0.61472600  0.12221600  1
  H  H55  1  0.69430200  0.18400065  0.59087250  1
  H  H56  1  0.60459600  0.30102600  0.60189600  1
  H  H57  1  0.75132400  0.29284200  0.62222200  1
  H  H58  1  0.81285900  0.48243700  0.94789800  1
  H  H59  1  0.75263400  0.61072000  0.95679000  1
  H  H60  1  0.90200950  0.57624800  0.95965000  1
  N  N61  1  0.40939800  0.40835400  0.23372200  1
  N  N62  1  0.09893535  0.13068220  0.40603200  1
  N  N63  1  0.93611500  0.35494600  0.30387600  1
  N  N64  1  0.90962200  0.06354180  0.33594950  1
  N  N65  1  0.23339570  0.69767200  0.35558000  1
  O  O66  1  0.19843040  0.22765000  0.26384000  1
  O  O67  1  0.37483600  0.22718400  0.27607600  1
  O  O68  1  0.07874825  0.38334400  0.15899610  1
  O  O69  1  0.08967165  0.36689400  0.39645200  1
  O  O70  1  0.27344880  0.38191800  0.39148400  1
  O  O71  1  0.26940065  0.36359200  0.13502610  1
  O  O72  1  0.66709400  0.25888200  0.31249000  1
  O  O73  1  0.15443860  0.53044800  0.27486200  1
  O  O74  1  0.68018800  0.51028400  0.22502400  1
  O  O75  1  0.97496950  0.54614400  0.27428600  1
