# CIF file from MOFDiff structure generation
# Relaxed using LAMMPS UFF force field
# Generation date: 2025-12-26 06:08:15
# Note: Computationally generated structure
#
# generated using pymatgen
data_ZnH12C14NO7
_chemical_name_common   'Zinc-based MOF (computationally generated)'
_chemical_name_systematic   ?
_audit_creation_method   'MOFDiff + LAMMPS UFF relaxation'
_chemical_name_systematic   ?
_audit_creation_method   'MOFDiff + LAMMPS UFF relaxation'
_chemical_name_systematic   ?
_audit_creation_method   'MOFDiff + LAMMPS UFF relaxation'
_chemical_name_systematic   ?
_audit_creation_method   'MOFDiff + LAMMPS UFF relaxation'
_chemical_name_systematic   ?
_audit_creation_method   'MOFDiff + LAMMPS UFF relaxation'
_symmetry_space_group_name_H-M   'P 1'
_cell_length_a   7.73151657
_cell_length_b   12.82107071
_cell_length_c   14.23793605
_cell_angle_alpha   86.92502365
_cell_angle_beta   89.49109931
_cell_angle_gamma   88.71224577
_symmetry_Int_Tables_number   1
_chemical_formula_structural   ZnH12C14NO7
_chemical_formula_sum   'Zn2 H24 C28 N2 O14'
_cell_volume   1408.92454045
_cell_formula_units_Z   2
loop_
 _symmetry_equiv_pos_site_id
 _symmetry_equiv_pos_as_xyz
  1  'x, y, z'
loop_
 _atom_site_type_symbol
 _atom_site_label
 _atom_site_symmetry_multiplicity
 _atom_site_fract_x
 _atom_site_fract_y
 _atom_site_fract_z
 _atom_site_occupancy
 _atom_site_U_iso_or_equiv
  C  C0  1  0.39108060  0.02283370  0.17875831  1
  C  C1  1  0.39304285  0.02050145  0.09185107  1
  C  C2  1  0.83954500  0.10648495  0.18725282  1
  C  C3  1  0.23605237  0.35449000  0.32759200  1
  C  C4  1  0.50655583  0.38386500  0.40638800  1
  C  C5  1  0.31648382  0.53314100  0.35504800  1
  C  C6  1  0.47835600  0.49398700  0.38868000  1
  C  C7  1  0.41408650  0.20229990  0.37847342  1
  C  C8  1  0.38572013  0.31539612  0.37290733  1
  C  C9  1  0.60561600  0.56576300  0.40611600  1
  C  C10  1  0.19822318  0.46403900  0.31985800  1
  C  C11  1  0.27281163  0.64055000  0.36259200  1
  C  C12  1  0.08114427  0.68458800  0.47511200  1
  C  C13  1  0.37954782  0.82529350  0.36363875  1
  C  C14  1  0.40627600  0.71230825  0.36987233  1
  C  C15  1  0.57233200  0.67534000  0.38907000  1
  C  C16  1  0.40060717  0.00516040  0.53166200  1
  C  C17  1  0.39643180  0.01882449  0.99095308  1
  C  C18  1  0.39404622  0.01571665  0.90578883  1
  C  C19  1  0.39027988  0.01168728  0.80505900  1
  C  C20  1  0.38966577  0.00908850  0.71981250  1
  C  C21  1  0.39289657  0.00720882  0.63448700  1
  C  C22  1  0.61354000  0.30895800  0.54441900  1
  C  C23  1  0.61110800  0.40276600  0.60955800  1
  C  C24  1  0.57465600  0.36342400  0.70860000  1
  C  C25  1  0.11875190  0.59055500  0.53890600  1
  C  C26  1  0.93618017  0.92354200  0.52871600  1
  C  C27  1  0.04831240  0.60476600  0.63095100  1
  H  H28  1  0.94179283  0.16392455  0.19952613  1
  H  H29  1  0.71591650  0.14687753  0.20205875  1
  H  H30  1  0.83825600  0.08695230  0.11418793  1
  H  H31  1  0.15307905  0.30235000  0.29972600  1
  H  H32  1  0.82434800  0.58741200  0.45276600  1
  H  H33  1  0.99208400  0.44622200  0.24662400  1
  H  H34  1  0.94871200  0.71687900  0.48321400  1
  H  H35  1  0.16333345  0.74711300  0.49518200  1
  H  H36  1  0.67364867  0.73235400  0.39668600  1
  H  H37  1  0.07080833  0.51532200  0.51173200  1
  H  H38  1  0.25282377  0.57976900  0.54537600  1
  H  H39  1  0.08785005  0.53478800  0.67832600  1
  H  H40  1  0.71605200  0.24904655  0.56781000  1
  H  H41  1  0.49098000  0.26597520  0.54920200  1
  H  H42  1  0.73735200  0.44126700  0.60774000  1
  H  H43  1  0.51064133  0.46457900  0.58731000  1
  H  H44  1  0.45548800  0.32654200  0.71228400  1
  H  H45  1  0.57239200  0.42926250  0.75146800  1
  H  H46  1  0.67688467  0.30409050  0.73354600  1
  H  H47  1  0.94003600  0.94023600  0.60299400  1
  H  H48  1  0.06135600  0.88757600  0.51967367  1
  H  H49  1  0.83584400  0.86500500  0.51696400  1
  H  H50  1  0.09599403  0.67852800  0.66159000  1
  H  H51  1  0.91317200  0.61024000  0.62981200  1
  N  N52  1  0.81842350  0.02751016  0.32501667  1
  N  N53  1  0.96112200  0.99725312  0.38381175  1
  O  O54  1  0.45846100  0.09612709  0.22633333  1
  O  O55  1  0.54480067  0.01490293  0.48515192  1
  O  O56  1  0.91561617  0.01937363  0.47233083  1
  O  O57  1  0.86586283  0.00864219  0.23808350  1
  O  O58  1  0.76289600  0.52617200  0.43536600  1
  O  O59  1  0.05459238  0.50593400  0.27246200  1
  O  O60  1  0.56995333  0.16289660  0.37844467  1
  O  O61  1  0.27881842  0.14319763  0.36483842  1
  O  O62  1  0.65353200  0.34360000  0.45285600  1
  O  O63  1  0.30524048  0.95579512  0.22906575  1
  O  O64  1  0.10268390  0.66819900  0.37948000  1
  O  O65  1  0.22527302  0.86503600  0.35655367  1
  O  O66  1  0.51501217  0.88682200  0.35730633  1
  O  O67  1  0.26061283  0.99924588  0.48381825  1
  Zn  Zn68  1  0.56639150  0.03213821  0.34994117  1
  Zn  Zn69  1  0.21573257  0.00159291  0.35713433  1
