# generated using pymatgen
data_ZnH4C9SNO7
_symmetry_space_group_name_H-M   'P 1'
_cell_length_a   8.47311000
_cell_length_b   9.42723000
_cell_length_c   14.34924000
_cell_angle_alpha   88.49637000
_cell_angle_beta   88.89297000
_cell_angle_gamma   78.70042000
_symmetry_Int_Tables_number   1
_chemical_formula_structural   ZnH4C9SNO7
_chemical_formula_sum   'Zn2 H8 C18 S2 N2 O14'
_cell_volume   1123.46581583
_cell_formula_units_Z   2
loop_
 _symmetry_equiv_pos_site_id
 _symmetry_equiv_pos_as_xyz
  1  'x, y, z'
loop_
 _atom_site_type_symbol
 _atom_site_label
 _atom_site_symmetry_multiplicity
 _atom_site_fract_x
 _atom_site_fract_y
 _atom_site_fract_z
 _atom_site_occupancy
  Zn  Zn0  1  0.63105290  0.25297308  0.22336844  1
  Zn  Zn1  1  0.75157726  0.93288696  0.22634919  1
  H  H2  1  0.86051630  0.67803570  0.10904884  1
  H  H3  1  0.52935220  0.50407714  0.34031790  1
  H  H4  1  0.65169650  0.50220984  0.07392366  1
  H  H5  1  0.73818684  0.67990094  0.37544936  1
  H  H6  1  0.44821596  0.72424350  0.16503242  1
  H  H7  1  0.94165397  0.45786893  0.28434172  1
  H  H8  1  0.08869260  0.22923195  0.46155810  1
  H  H9  1  0.02786724  0.80324700  0.41631463  1
  C  C10  1  0.67013896  0.54398406  0.14369436  1
  C  C11  1  0.71974440  0.63812670  0.30567870  1
  C  C12  1  0.79712270  0.63244940  0.16692905  1
  C  C13  1  0.59276056  0.54966140  0.28244400  1
  C  C14  1  0.55430440  0.65915390  0.19885987  1
  C  C15  1  0.83557890  0.52295697  0.25051317  1
  C  C16  1  0.38139492  0.14456755  0.23737192  1
  C  C17  1  0.15522687  0.03220525  0.26710080  1
  C  C18  1  0.99764305  0.03331196  0.22953175  1
  C  C19  1  0.21065012  0.15605476  0.25963792  1
  C  C20  1  0.66886690  0.14085254  0.39582726  1
  C  C21  1  0.70423320  0.06091796  0.95127845  1
  C  C22  1  0.71140790  0.04331844  0.05254006  1
  C  C23  1  0.67706656  0.12298217  0.49708220  1
  C  C24  1  0.68299484  0.11033738  0.58186110  1
  C  C25  1  0.68905467  0.09709108  0.68170880  1
  C  C26  1  0.69376090  0.08631172  0.76659390  1
  C  C27  1  0.69921750  0.07326408  0.86646456  1
  S  S28  1  0.11461444  0.31520888  0.32200122  1
  S  S29  1  0.21046683  0.91982013  0.36666656  1
  N  N30  1  0.68269310  0.73713464  0.22259320  1
  N  N31  1  0.70719020  0.44497615  0.22677988  1
  O  O32  1  0.47454885  0.01550004  0.22776560  1
  O  O33  1  0.93465610  0.35465208  0.31988913  1
  O  O34  1  0.16305079  0.28934270  0.43511390  1
  O  O35  1  0.29547438  0.77373030  0.33629850  1
  O  O36  1  0.32015213  0.98368100  0.42719102  1
  O  O37  1  0.04711946  0.90078950  0.43015695  1
  O  O38  1  0.90758216  0.16144153  0.22179931  1
  O  O39  1  0.43329442  0.26622272  0.23410137  1
  O  O40  1  0.94883650  0.91071880  0.21546358  1
  O  O41  1  0.17567319  0.44331780  0.28176624  1
  O  O42  1  0.60933980  0.26997653  0.36047706  1
  O  O43  1  0.72186420  0.02794627  0.34326280  1
  O  O44  1  0.65904236  0.15637879  0.10509324  1
  O  O45  1  0.77156687  0.91434840  0.08787882  1
