# generated using pymatgen
data_ZnH5C17Br3(NO2)5
_symmetry_space_group_name_H-M   'P 1'
_cell_length_a   9.12319000
_cell_length_b   9.84936000
_cell_length_c   22.93349000
_cell_angle_alpha   90.05832000
_cell_angle_beta   87.76293000
_cell_angle_gamma   89.40878000
_symmetry_Int_Tables_number   1
_chemical_formula_structural   ZnH5C17Br3(NO2)5
_chemical_formula_sum   'Zn2 H10 C34 Br6 N10 O20'
_cell_volume   2059.06570962
_cell_formula_units_Z   2
loop_
 _symmetry_equiv_pos_site_id
 _symmetry_equiv_pos_as_xyz
  1  'x, y, z'
loop_
 _atom_site_type_symbol
 _atom_site_label
 _atom_site_symmetry_multiplicity
 _atom_site_fract_x
 _atom_site_fract_y
 _atom_site_fract_z
 _atom_site_occupancy
  Zn  Zn0  1  0.38131110  0.17230964  0.03312962  1
  Zn  Zn1  1  0.71604640  0.18066078  0.02727704  1
  H  H2  1  0.48222855  0.50979155  0.59328496  1
  H  H3  1  0.46857277  0.83448250  0.47840697  1
  H  H4  1  0.42521295  0.72878814  0.10992570  1
  H  H5  1  0.32846272  0.55524860  0.16464126  1
  H  H6  1  0.42542560  0.43214628  0.12140512  1
  H  H7  1  0.27462593  0.52708600  0.09124582  1
  H  H8  1  0.75906650  0.75518066  0.97468930  1
  H  H9  1  0.66332910  0.71777385  0.87744623  1
  H  H10  1  0.58853670  0.86319530  0.91465060  1
  H  H11  1  0.48777694  0.70355610  0.91271280  1
  C  C12  1  0.27145126  0.17553534  0.02532861  1
  C  C13  1  0.83171560  0.17307850  0.03813101  1
  C  C14  1  0.11687029  0.17467193  0.02982559  1
  C  C15  1  0.98629653  0.17394193  0.03363400  1
  C  C16  1  0.68286410  0.17254480  0.92677930  1
  C  C17  1  0.41218597  0.17456600  0.13492377  1
  C  C18  1  0.44335570  0.06003501  0.41350737  1
  C  C19  1  0.51825583  0.28447974  0.65744674  1
  C  C20  1  0.48961204  0.29772726  0.41290367  1
  C  C21  1  0.58031810  0.04921937  0.65053260  1
  C  C22  1  0.48423067  0.30046713  0.47449680  1
  C  C23  1  0.53428680  0.04531489  0.59250814  1
  C  C24  1  0.48794308  0.17483263  0.50400450  1
  C  C25  1  0.50880206  0.17046450  0.56450740  1
  C  C26  1  0.47187272  0.05335262  0.47298387  1
  C  C27  1  0.50520210  0.29150647  0.59688960  1
  C  C28  1  0.48044354  0.42256585  0.50751626  1
  C  C29  1  0.51768970  0.92276216  0.56089956  1
  C  C30  1  0.48793150  0.41620620  0.56838524  1
  C  C31  1  0.48369026  0.92853150  0.50186560  1
  C  C32  1  0.52786404  0.07113990  0.78256710  1
  C  C33  1  0.35329172  0.27144542  0.29391283  1
  C  C34  1  0.56572390  0.06664025  0.84150350  1
  C  C35  1  0.34968036  0.27658904  0.23260432  1
  C  C36  1  0.65601210  0.16827022  0.86396610  1
  C  C37  1  0.42816850  0.17869730  0.19849052  1
  C  C38  1  0.70849437  0.27203440  0.82703500  1
  C  C39  1  0.51051280  0.07809307  0.22613284  1
  C  C40  1  0.69450130  0.26104030  0.76669884  1
  C  C41  1  0.53663063  0.08947582  0.28561053  1
  C  C42  1  0.59700270  0.16547833  0.74418855  1
  C  C43  1  0.45171514  0.18095635  0.32072583  1
  C  C44  1  0.36985132  0.53159434  0.11955599  1
  C  C45  1  0.59622400  0.75104050  0.91613680  1
  Br  Br46  1  0.48523554  0.92669857  0.89205045  1
  Br  Br47  1  0.22895760  0.41189268  0.19595133  1
  Br  Br48  1  0.76419157  0.44403213  0.85884553  1
  Br  Br49  1  0.55500270  0.90824650  0.18746981  1
  Br  Br50  1  0.81495947  0.37355745  0.71581110  1
  Br  Br51  1  0.69362850  0.98333410  0.31733790  1
  N  N52  1  0.46211600  0.17958003  0.38358780  1
  N  N53  1  0.56494725  0.16641197  0.68282590  1
  N  N54  1  0.45723438  0.55264986  0.48106515  1
  N  N55  1  0.52289400  0.79227734  0.58859690  1
  N  N56  1  0.41576996  0.98366020  0.76203910  1
  N  N57  1  0.25380653  0.35419410  0.32907474  1
  N  N58  1  0.52680430  0.62220967  0.04340443  1
  N  N59  1  0.57329184  0.73040630  0.01766347  1
  N  N60  1  0.46871388  0.63672525  0.09970565  1
  N  N61  1  0.66166720  0.70780330  0.96926814  1
  O  O62  1  0.34112570  0.06154003  0.02184290  1
  O  O63  1  0.76204110  0.28707385  0.04161669  1
  O  O64  1  0.76584560  0.05832896  0.03854707  1
  O  O65  1  0.33732122  0.29028490  0.02491252  1
  O  O66  1  0.81593156  0.17546274  0.94536805  1
  O  O67  1  0.28094414  0.17164914  0.11620821  1
  O  O68  1  0.52670580  0.17712164  0.09919764  1
  O  O69  1  0.57016990  0.16999026  0.96237860  1
  O  O70  1  0.39912540  0.94771564  0.38567343  1
  O  O71  1  0.48640320  0.39506534  0.69054640  1
  O  O72  1  0.52601350  0.41040695  0.38255635  1
  O  O73  1  0.64357660  0.93879837  0.67398226  1
  O  O74  1  0.34531027  0.57157970  0.44843882  1
  O  O75  1  0.52877116  0.65767420  0.49866292  1
  O  O76  1  0.43948780  0.76891875  0.63475263  1
  O  O77  1  0.58703953  0.69031400  0.56158760  1
  O  O78  1  0.30674642  0.03443776  0.73400100  1
  O  O79  1  0.42698590  0.85260360  0.76779366  1
  O  O80  1  0.17241064  0.29919615  0.37029317  1
  O  O81  1  0.25094464  0.48543707  0.32270053  1
