# generated using pymatgen
data_CuH6C15NO10
_symmetry_space_group_name_H-M   'P 1'
_cell_length_a   7.68164000
_cell_length_b   9.09222000
_cell_length_c   18.29678000
_cell_angle_alpha   92.67198000
_cell_angle_beta   90.50841000
_cell_angle_gamma   94.63037000
_symmetry_Int_Tables_number   1
_chemical_formula_structural   CuH6C15NO10
_chemical_formula_sum   'Cu2 H12 C30 N2 O20'
_cell_volume   1272.24686457
_cell_formula_units_Z   2
loop_
 _symmetry_equiv_pos_site_id
 _symmetry_equiv_pos_as_xyz
  1  'x, y, z'
loop_
 _atom_site_type_symbol
 _atom_site_label
 _atom_site_symmetry_multiplicity
 _atom_site_fract_x
 _atom_site_fract_y
 _atom_site_fract_z
 _atom_site_occupancy
  Cu  Cu0  1  0.70756170  0.90195376  0.63497770  1
  Cu  Cu1  1  0.36384058  0.85487340  0.64771813  1
  H  H2  1  0.88413835  0.28365004  0.92654840  1
  H  H3  1  0.25238073  0.71830590  0.36853793  1
  H  H4  1  0.98786306  0.77730270  0.00819145  1
  H  H5  1  0.07363975  0.98137860  0.26854774  1
  H  H6  1  0.59610880  0.19594991  0.08773801  1
  H  H7  1  0.45954052  0.56555730  0.19342366  1
  H  H8  1  0.59662640  0.32700706  0.30609566  1
  H  H9  1  0.45773715  0.43720078  0.97683280  1
  H  H10  1  0.73959655  0.65941656  0.00523637  1
  H  H11  1  0.31986960  0.10407817  0.27339625  1
  H  H12  1  0.17293775  0.47642170  0.35293403  1
  H  H13  1  0.80786216  0.04175162  0.90908900  1
  C  C14  1  0.74858046  0.70604290  0.22592126  1
  C  C15  1  0.37688040  0.19466138  0.03097736  1
  C  C16  1  0.67922520  0.56707793  0.24986188  1
  C  C17  1  0.85474670  0.02531707  0.96388600  1
  C  C18  1  0.20455039  0.73330380  0.31371617  1
  C  C19  1  0.07176232  0.84312950  0.04736129  1
  C  C20  1  0.98784316  0.91546243  0.23011588  1
  C  C21  1  0.75826734  0.68346560  0.06350175  1
  C  C22  1  0.29650056  0.07471371  0.21582483  1
  C  C23  1  0.78131974  0.48630604  0.29557340  1
  C  C24  1  0.10442606  0.22227025  0.96511350  1
  C  C25  1  0.95265110  0.53871113  0.31482315  1
  C  C26  1  0.64607470  0.78752620  0.10368137  1
  C  C27  1  0.41051750  0.97216950  0.17577909  1
  C  C28  1  0.55389630  0.87668450  0.98430043  1
  C  C29  1  0.53942990  0.87546724  0.06366668  1
  C  C30  1  0.51815250  0.88522510  0.21584202  1
  C  C31  1  0.41944432  0.96447130  0.09871723  1
  C  C32  1  0.63770090  0.79579794  0.18079165  1
  C  C33  1  0.50386566  0.88455810  0.29520828  1
  C  C34  1  0.03486595  0.08200169  0.98710830  1
  C  C35  1  0.02330601  0.67773660  0.29161704  1
  C  C36  1  0.13845615  0.99655455  0.03057594  1
  C  C37  1  0.27475867  0.27580237  0.98544100  1
  C  C38  1  0.91978216  0.76302266  0.24802843  1
  C  C39  1  0.30856156  0.05447424  0.05374772  1
  C  C40  1  0.51188020  0.60003630  0.64467704  1
  C  C41  1  0.56222480  0.16324234  0.63580430  1
  C  C42  1  0.52886385  0.44635162  0.64155000  1
  C  C43  1  0.54527140  0.31693120  0.63893175  1
  N  N44  1  0.95737460  0.88372000  0.63969760  1
  N  N45  1  0.11182116  0.87793150  0.63992643  1
  O  O46  1  0.75516796  0.96348000  0.00649311  1
  O  O47  1  0.36063644  0.84026900  0.32426846  1
  O  O48  1  0.42266930  0.83217270  0.94464710  1
  O  O49  1  0.63512020  0.92911536  0.33486325  1
  O  O50  1  0.01040480  0.31325412  0.92404940  1
  O  O51  1  0.04653394  0.44794180  0.35606357  1
  O  O52  1  0.30385280  0.79252830  0.27015823  1
  O  O53  1  0.10630443  0.78935060  0.10509244  1
  O  O54  1  0.69715340  0.92101884  0.95524186  1
  O  O55  1  0.95240620  0.96821284  0.17222552  1
  O  O56  1  0.54228115  0.25580180  0.05135690  1
  O  O57  1  0.51284990  0.50683546  0.23043670  1
  O  O58  1  0.71973360  0.35147620  0.32150194  1
  O  O59  1  0.33528465  0.41189194  0.96067560  1
  O  O60  1  0.87258387  0.62263614  0.09408034  1
  O  O61  1  0.17487413  0.12740266  0.18596639  1
  O  O62  1  0.36011560  0.64834220  0.64460510  1
  O  O63  1  0.71398926  0.11493637  0.63587624  1
  O  O64  1  0.42430740  0.07546627  0.63295480  1
  O  O65  1  0.64979740  0.68781220  0.64752656  1
