data_sample_10_relaxed_charged

_audit_creation_method RASPA-1.0
_audit_creation_date 2026-2-5
_audit_author_name ''

_cell_length_a    10.0336
_cell_length_b    10.7155
_cell_length_c    15.5642
_cell_angle_alpha 90.759
_cell_angle_beta  90.89
_cell_angle_gamma 88.654
_cell_volume      13380.7

_symmetry_cell_setting          triclinic
_symmetry_space_group_name_Hall 'P 1'
_symmetry_space_group_name_H-M  'P 1'
_symmetry_Int_Tables_number     1

_symmetry_equiv_pos_as_xyz 'x,y,z'

loop_
_atom_site_label
_atom_site_type_symbol
_atom_site_fract_x
_atom_site_fract_y
_atom_site_fract_z
_atom_site_charge
Zn0      Zn     0.276280500000     0.396913675000     0.153222860000     0.076542   
Zn0      Zn     0.276280500000     0.396913675000     0.653222860000     0.076542   
Zn0      Zn     0.276280500000     0.896913675000     0.153222860000     0.076542   
Zn0      Zn     0.276280500000     0.896913675000     0.653222860000     0.076542   
Zn0      Zn     0.776280500000     0.396913675000     0.153222860000     0.076542   
Zn0      Zn     0.776280500000     0.396913675000     0.653222860000     0.076542   
Zn0      Zn     0.776280500000     0.896913675000     0.153222860000     0.076542   
Zn0      Zn     0.776280500000     0.896913675000     0.653222860000     0.076542   
Zn1      Zn     0.251176450000     0.260010930000     0.134810670000     0.11673    
Zn1      Zn     0.251176450000     0.260010930000     0.634810670000     0.11673    
Zn1      Zn     0.251176450000     0.760010930000     0.134810670000     0.11673    
Zn1      Zn     0.251176450000     0.760010930000     0.634810670000     0.11673    
Zn1      Zn     0.751176450000     0.260010930000     0.134810670000     0.11673    
Zn1      Zn     0.751176450000     0.260010930000     0.634810670000     0.11673    
Zn1      Zn     0.751176450000     0.760010930000     0.134810670000     0.11673    
Zn1      Zn     0.751176450000     0.760010930000     0.634810670000     0.11673    
H2       H      0.188014060000     0.259347600000     0.426878650000     0.07919    
H2       H      0.188014060000     0.259347600000     0.926878650000     0.07919    
H2       H      0.188014060000     0.759347600000     0.426878650000     0.07919    
H2       H      0.188014060000     0.759347600000     0.926878650000     0.07919    
H2       H      0.688014060000     0.259347600000     0.426878650000     0.07919    
H2       H      0.688014060000     0.259347600000     0.926878650000     0.07919    
H2       H      0.688014060000     0.759347600000     0.426878650000     0.07919    
H2       H      0.688014060000     0.759347600000     0.926878650000     0.07919    
H3       H      0.239881470000     0.425827175000     0.356892250000     0.103511   
H3       H      0.239881470000     0.425827175000     0.856892250000     0.103511   
H3       H      0.239881470000     0.925827175000     0.356892250000     0.103511   
H3       H      0.239881470000     0.925827175000     0.856892250000     0.103511   
H3       H      0.739881470000     0.425827175000     0.356892250000     0.103511   
H3       H      0.739881470000     0.425827175000     0.856892250000     0.103511   
H3       H      0.739881470000     0.925827175000     0.356892250000     0.103511   
H3       H      0.739881470000     0.925827175000     0.856892250000     0.103511   
H4       H      0.172152550000     0.372859850000     0.355102300000     0.028779   
H4       H      0.172152550000     0.372859850000     0.855102300000     0.028779   
H4       H      0.172152550000     0.872859850000     0.355102300000     0.028779   
H4       H      0.172152550000     0.872859850000     0.855102300000     0.028779   
H4       H      0.672152550000     0.372859850000     0.355102300000     0.028779   
H4       H      0.672152550000     0.372859850000     0.855102300000     0.028779   
H4       H      0.672152550000     0.872859850000     0.355102300000     0.028779   
H4       H      0.672152550000     0.872859850000     0.855102300000     0.028779   
H5       H      0.169034975000     0.374778865000     0.428271500000     0.152331   
H5       H      0.169034975000     0.374778865000     0.928271500000     0.152331   
H5       H      0.169034975000     0.874778865000     0.428271500000     0.152331   
H5       H      0.169034975000     0.874778865000     0.928271500000     0.152331   
H5       H      0.669034975000     0.374778865000     0.428271500000     0.152331   
H5       H      0.669034975000     0.374778865000     0.928271500000     0.152331   
H5       H      0.669034975000     0.874778865000     0.428271500000     0.152331   
H5       H      0.669034975000     0.874778865000     0.928271500000     0.152331   
H6       H      0.237427950000     0.426783600000     0.430365900000     0.34927    
H6       H      0.237427950000     0.426783600000     0.930365900000     0.34927    
H6       H      0.237427950000     0.926783600000     0.430365900000     0.34927    
H6       H      0.237427950000     0.926783600000     0.930365900000     0.34927    
H6       H      0.737427950000     0.426783600000     0.430365900000     0.34927    
H6       H      0.737427950000     0.426783600000     0.930365900000     0.34927    
H6       H      0.737427950000     0.926783600000     0.430365900000     0.34927    
H6       H      0.737427950000     0.926783600000     0.930365900000     0.34927    
H7       H      0.278623450000     0.224899560000     0.356977350000     0.060458   
H7       H      0.278623450000     0.224899560000     0.856977350000     0.060458   
H7       H      0.278623450000     0.724899560000     0.356977350000     0.060458   
H7       H      0.278623450000     0.724899560000     0.856977350000     0.060458   
H7       H      0.778623450000     0.224899560000     0.356977350000     0.060458   
H7       H      0.778623450000     0.224899560000     0.856977350000     0.060458   
H7       H      0.778623450000     0.724899560000     0.356977350000     0.060458   
H7       H      0.778623450000     0.724899560000     0.856977350000     0.060458   
H8       H      0.374472915000     0.296054850000     0.361226550000    -0.018107   
H8       H      0.374472915000     0.296054850000     0.861226550000    -0.018107   
H8       H      0.374472915000     0.796054850000     0.361226550000    -0.018107   
H8       H      0.374472915000     0.796054850000     0.861226550000    -0.018107   
H8       H      0.874472915000     0.296054850000     0.361226550000    -0.018107   
H8       H      0.874472915000     0.296054850000     0.861226550000    -0.018107   
H8       H      0.874472915000     0.796054850000     0.361226550000    -0.018107   
H8       H      0.874472915000     0.796054850000     0.861226550000    -0.018107   
H9       H      0.371568600000     0.297502250000     0.433316300000     0.38232    
H9       H      0.371568600000     0.297502250000     0.933316300000     0.38232    
H9       H      0.371568600000     0.797502250000     0.433316300000     0.38232    
H9       H      0.371568600000     0.797502250000     0.933316300000     0.38232    
H9       H      0.871568600000     0.297502250000     0.433316300000     0.38232    
H9       H      0.871568600000     0.297502250000     0.933316300000     0.38232    
H9       H      0.871568600000     0.797502250000     0.433316300000     0.38232    
H9       H      0.871568600000     0.797502250000     0.933316300000     0.38232    
H10      H      0.194732935000     0.254819485000     0.354305325000     0.030539   
H10      H      0.194732935000     0.254819485000     0.854305325000     0.030539   
H10      H      0.194732935000     0.754819485000     0.354305325000     0.030539   
H10      H      0.194732935000     0.754819485000     0.854305325000     0.030539   
H10      H      0.694732935000     0.254819485000     0.354305325000     0.030539   
H10      H      0.694732935000     0.254819485000     0.854305325000     0.030539   
H10      H      0.694732935000     0.754819485000     0.354305325000     0.030539   
H10      H      0.694732935000     0.754819485000     0.854305325000     0.030539   
H11      H      0.274750770000     0.131391035000     0.170086665000    -0.113047   
H11      H      0.274750770000     0.131391035000     0.670086665000    -0.113047   
H11      H      0.274750770000     0.631391035000     0.170086665000    -0.113047   
H11      H      0.274750770000     0.631391035000     0.670086665000    -0.113047   
H11      H      0.774750770000     0.131391035000     0.170086665000    -0.113047   
H11      H      0.774750770000     0.131391035000     0.670086665000    -0.113047   
H11      H      0.774750770000     0.631391035000     0.170086665000    -0.113047   
H11      H      0.774750770000     0.631391035000     0.670086665000    -0.113047   
H12      H      0.319226400000     0.071102330000     0.115476705000    -0.071449   
H12      H      0.319226400000     0.071102330000     0.615476705000    -0.071449   
H12      H      0.319226400000     0.571102330000     0.115476705000    -0.071449   
H12      H      0.319226400000     0.571102330000     0.615476705000    -0.071449   
H12      H      0.819226400000     0.071102330000     0.115476705000    -0.071449   
H12      H      0.819226400000     0.071102330000     0.615476705000    -0.071449   
H12      H      0.819226400000     0.571102330000     0.115476705000    -0.071449   
H12      H      0.819226400000     0.571102330000     0.615476705000    -0.071449   
H13      H      0.078678830000     0.235056085000     0.134549560000    -0.060561   
H13      H      0.078678830000     0.235056085000     0.634549560000    -0.060561   
H13      H      0.078678830000     0.735056085000     0.134549560000    -0.060561   
H13      H      0.078678830000     0.735056085000     0.634549560000    -0.060561   
H13      H      0.578678830000     0.235056085000     0.134549560000    -0.060561   
H13      H      0.578678830000     0.235056085000     0.634549560000    -0.060561   
H13      H      0.578678830000     0.735056085000     0.134549560000    -0.060561   
H13      H      0.578678830000     0.735056085000     0.634549560000    -0.060561   
H14      H      0.452985300000     0.235545500000     0.127538025000    -0.091113   
H14      H      0.452985300000     0.235545500000     0.627538025000    -0.091113   
H14      H      0.452985300000     0.735545500000     0.127538025000    -0.091113   
H14      H      0.452985300000     0.735545500000     0.627538025000    -0.091113   
H14      H      0.952985300000     0.235545500000     0.127538025000    -0.091113   
H14      H      0.952985300000     0.235545500000     0.627538025000    -0.091113   
H14      H      0.952985300000     0.735545500000     0.127538025000    -0.091113   
H14      H      0.952985300000     0.735545500000     0.627538025000    -0.091113   
H15      H      0.464732050000     0.359793215000     0.167796210000     0.076905   
H15      H      0.464732050000     0.359793215000     0.667796210000     0.076905   
H15      H      0.464732050000     0.859793215000     0.167796210000     0.076905   
H15      H      0.464732050000     0.859793215000     0.667796210000     0.076905   
H15      H      0.964732050000     0.359793215000     0.167796210000     0.076905   
H15      H      0.964732050000     0.359793215000     0.667796210000     0.076905   
H15      H      0.964732050000     0.859793215000     0.167796210000     0.076905   
H15      H      0.964732050000     0.859793215000     0.667796210000     0.076905   
C16      C      0.271690875000     0.320074600000     0.222990110000     0.01159    
C16      C      0.271690875000     0.320074600000     0.722990110000     0.01159    
C16      C      0.271690875000     0.820074600000     0.222990110000     0.01159    
C16      C      0.271690875000     0.820074600000     0.722990110000     0.01159    
C16      C      0.771690875000     0.320074600000     0.222990110000     0.01159    
C16      C      0.771690875000     0.320074600000     0.722990110000     0.01159    
C16      C      0.771690875000     0.820074600000     0.222990110000     0.01159    
C16      C      0.771690875000     0.820074600000     0.722990110000     0.01159    
C17      C      0.241110235000     0.264231500000     0.417857250000     0.095461   
C17      C      0.241110235000     0.264231500000     0.917857250000     0.095461   
C17      C      0.241110235000     0.764231500000     0.417857250000     0.095461   
C17      C      0.241110235000     0.764231500000     0.917857250000     0.095461   
C17      C      0.741110235000     0.264231500000     0.417857250000     0.095461   
C17      C      0.741110235000     0.264231500000     0.917857250000     0.095461   
C17      C      0.741110235000     0.764231500000     0.417857250000     0.095461   
C17      C      0.741110235000     0.764231500000     0.917857250000     0.095461   
C18      C      0.266771350000     0.327390730000     0.436140550000     0.080037   
C18      C      0.266771350000     0.327390730000     0.936140550000     0.080037   
C18      C      0.266771350000     0.827390730000     0.436140550000     0.080037   
C18      C      0.266771350000     0.827390730000     0.936140550000     0.080037   
C18      C      0.766771350000     0.327390730000     0.436140550000     0.080037   
C18      C      0.766771350000     0.327390730000     0.936140550000     0.080037   
C18      C      0.766771350000     0.827390730000     0.436140550000     0.080037   
C18      C      0.766771350000     0.827390730000     0.936140550000     0.080037   
C19      C      0.256017000000     0.333427815000     0.065301420000    -0.088442   
C19      C      0.256017000000     0.333427815000     0.565301420000    -0.088442   
C19      C      0.256017000000     0.833427815000     0.065301420000    -0.088442   
C19      C      0.256017000000     0.833427815000     0.565301420000    -0.088442   
C19      C      0.756017000000     0.333427815000     0.065301420000    -0.088442   
C19      C      0.756017000000     0.333427815000     0.565301420000    -0.088442   
C19      C      0.756017000000     0.833427815000     0.065301420000    -0.088442   
C19      C      0.756017000000     0.833427815000     0.565301420000    -0.088442   
C20      C      0.339863200000     0.337169650000     0.421602450000     0.482889   
C20      C      0.339863200000     0.337169650000     0.921602450000     0.482889   
C20      C      0.339863200000     0.837169650000     0.421602450000     0.482889   
C20      C      0.339863200000     0.837169650000     0.921602450000     0.482889   
C20      C      0.839863200000     0.337169650000     0.421602450000     0.482889   
C20      C      0.839863200000     0.337169650000     0.921602450000     0.482889   
C20      C      0.839863200000     0.837169650000     0.421602450000     0.482889   
C20      C      0.839863200000     0.837169650000     0.921602450000     0.482889   
C21      C      0.245107325000     0.263602050000     0.368319930000     0.367372   
C21      C      0.245107325000     0.263602050000     0.868319930000     0.367372   
C21      C      0.245107325000     0.763602050000     0.368319930000     0.367372   
C21      C      0.245107325000     0.763602050000     0.868319930000     0.367372   
C21      C      0.745107325000     0.263602050000     0.368319930000     0.367372   
C21      C      0.745107325000     0.263602050000     0.868319930000     0.367372   
C21      C      0.745107325000     0.763602050000     0.368319930000     0.367372   
C21      C      0.745107325000     0.763602050000     0.868319930000     0.367372   
C22      C      0.223335070000     0.379829100000     0.368357720000     0.073718   
C22      C      0.223335070000     0.379829100000     0.868357720000     0.073718   
C22      C      0.223335070000     0.879829100000     0.368357720000     0.073718   
C22      C      0.223335070000     0.879829100000     0.868357720000     0.073718   
C22      C      0.723335070000     0.379829100000     0.368357720000     0.073718   
C22      C      0.723335070000     0.379829100000     0.868357720000     0.073718   
C22      C      0.723335070000     0.879829100000     0.368357720000     0.073718   
C22      C      0.723335070000     0.879829100000     0.868357720000     0.073718   
C23      C      0.221343965000     0.380575985000     0.417855770000    -0.142347   
C23      C      0.221343965000     0.380575985000     0.917855770000    -0.142347   
C23      C      0.221343965000     0.880575985000     0.417855770000    -0.142347   
C23      C      0.221343965000     0.880575985000     0.917855770000    -0.142347   
C23      C      0.721343965000     0.380575985000     0.417855770000    -0.142347   
C23      C      0.721343965000     0.380575985000     0.917855770000    -0.142347   
C23      C      0.721343965000     0.880575985000     0.417855770000    -0.142347   
C23      C      0.721343965000     0.880575985000     0.917855770000    -0.142347   
C24      C      0.259123770000     0.329792025000     0.020420430000    -0.346413   
C24      C      0.259123770000     0.329792025000     0.520420430000    -0.346413   
C24      C      0.259123770000     0.829792025000     0.020420430000    -0.346413   
C24      C      0.259123770000     0.829792025000     0.520420430000    -0.346413   
C24      C      0.759123770000     0.329792025000     0.020420430000    -0.346413   
C24      C      0.759123770000     0.329792025000     0.520420430000    -0.346413   
C24      C      0.759123770000     0.829792025000     0.020420430000    -0.346413   
C24      C      0.759123770000     0.829792025000     0.520420430000    -0.346413   
C25      C      0.342273350000     0.336464050000     0.371363730000     0.392413   
C25      C      0.342273350000     0.336464050000     0.871363730000     0.392413   
C25      C      0.342273350000     0.836464050000     0.371363730000     0.392413   
C25      C      0.342273350000     0.836464050000     0.871363730000     0.392413   
C25      C      0.842273350000     0.336464050000     0.371363730000     0.392413   
C25      C      0.842273350000     0.336464050000     0.871363730000     0.392413   
C25      C      0.842273350000     0.836464050000     0.371363730000     0.392413   
C25      C      0.842273350000     0.836464050000     0.871363730000     0.392413   
C26      C      0.270858050000     0.326751300000     0.352445600000     0.018538   
C26      C      0.270858050000     0.326751300000     0.852445600000     0.018538   
C26      C      0.270858050000     0.826751300000     0.352445600000     0.018538   
C26      C      0.270858050000     0.826751300000     0.852445600000     0.018538   
C26      C      0.770858050000     0.326751300000     0.352445600000     0.018538   
C26      C      0.770858050000     0.326751300000     0.852445600000     0.018538   
C26      C      0.770858050000     0.826751300000     0.352445600000     0.018538   
C26      C      0.770858050000     0.826751300000     0.852445600000     0.018538   
C27      C      0.262475300000     0.328082680000     0.482399600000     0.075819   
C27      C      0.262475300000     0.328082680000     0.982399600000     0.075819   
C27      C      0.262475300000     0.828082680000     0.482399600000     0.075819   
C27      C      0.262475300000     0.828082680000     0.982399600000     0.075819   
C27      C      0.762475300000     0.328082680000     0.482399600000     0.075819   
C27      C      0.762475300000     0.328082680000     0.982399600000     0.075819   
C27      C      0.762475300000     0.828082680000     0.482399600000     0.075819   
C27      C      0.762475300000     0.828082680000     0.982399600000     0.075819   
C28      C      0.271336350000     0.325330315000     0.306078650000    -0.204877   
C28      C      0.271336350000     0.325330315000     0.806078650000    -0.204877   
C28      C      0.271336350000     0.825330315000     0.306078650000    -0.204877   
C28      C      0.271336350000     0.825330315000     0.806078650000    -0.204877   
C28      C      0.771336350000     0.325330315000     0.306078650000    -0.204877   
C28      C      0.771336350000     0.325330315000     0.806078650000    -0.204877   
C28      C      0.771336350000     0.825330315000     0.306078650000    -0.204877   
C28      C      0.771336350000     0.825330315000     0.806078650000    -0.204877   
C29      C      0.271415300000     0.323375075000     0.267966000000    -0.146777   
C29      C      0.271415300000     0.323375075000     0.767966000000    -0.146777   
C29      C      0.271415300000     0.823375075000     0.267966000000    -0.146777   
C29      C      0.271415300000     0.823375075000     0.767966000000    -0.146777   
C29      C      0.771415300000     0.323375075000     0.267966000000    -0.146777   
C29      C      0.771415300000     0.323375075000     0.767966000000    -0.146777   
C29      C      0.771415300000     0.823375075000     0.267966000000    -0.146777   
C29      C      0.771415300000     0.823375075000     0.767966000000    -0.146777   
C30      C      0.181776270000     0.186070085000     0.164933785000    -0.465922   
C30      C      0.181776270000     0.186070085000     0.664933785000    -0.465922   
C30      C      0.181776270000     0.686070085000     0.164933785000    -0.465922   
C30      C      0.181776270000     0.686070085000     0.664933785000    -0.465922   
C30      C      0.681776270000     0.186070085000     0.164933785000    -0.465922   
C30      C      0.681776270000     0.186070085000     0.664933785000    -0.465922   
C30      C      0.681776270000     0.686070085000     0.164933785000    -0.465922   
C30      C      0.681776270000     0.686070085000     0.664933785000    -0.465922   
C31      C      0.349166050000     0.472759725000     0.121942685000     0.037272   
C31      C      0.349166050000     0.472759725000     0.621942685000     0.037272   
C31      C      0.349166050000     0.972759725000     0.121942685000     0.037272   
C31      C      0.349166050000     0.972759725000     0.621942685000     0.037272   
C31      C      0.849166050000     0.472759725000     0.121942685000     0.037272   
C31      C      0.849166050000     0.472759725000     0.621942685000     0.037272   
C31      C      0.849166050000     0.972759725000     0.121942685000     0.037272   
C31      C      0.849166050000     0.972759725000     0.621942685000     0.037272   
C32      C      0.238271000000     0.020511220000     0.139066150000    -0.157654   
C32      C      0.238271000000     0.020511220000     0.639066150000    -0.157654   
C32      C      0.238271000000     0.520511220000     0.139066150000    -0.157654   
C32      C      0.238271000000     0.520511220000     0.639066150000    -0.157654   
C32      C      0.738271000000     0.020511220000     0.139066150000    -0.157654   
C32      C      0.738271000000     0.020511220000     0.639066150000    -0.157654   
C32      C      0.738271000000     0.520511220000     0.139066150000    -0.157654   
C32      C      0.738271000000     0.520511220000     0.639066150000    -0.157654   
C33      C      0.300359430000     0.025423550000     0.122743435000    -0.267293   
C33      C      0.300359430000     0.025423550000     0.622743435000    -0.267293   
C33      C      0.300359430000     0.525423550000     0.122743435000    -0.267293   
C33      C      0.300359430000     0.525423550000     0.622743435000    -0.267293   
C33      C      0.800359430000     0.025423550000     0.122743435000    -0.267293   
C33      C      0.800359430000     0.025423550000     0.622743435000    -0.267293   
C33      C      0.800359430000     0.525423550000     0.122743435000    -0.267293   
C33      C      0.800359430000     0.525423550000     0.622743435000    -0.267293   
C34      C      0.221782180000     0.128372075000     0.164065660000    -0.278078   
C34      C      0.221782180000     0.128372075000     0.664065660000    -0.278078   
C34      C      0.221782180000     0.628372075000     0.164065660000    -0.278078   
C34      C      0.221782180000     0.628372075000     0.664065660000    -0.278078   
C34      C      0.721782180000     0.128372075000     0.164065660000    -0.278078   
C34      C      0.721782180000     0.128372075000     0.664065660000    -0.278078   
C34      C      0.721782180000     0.628372075000     0.164065660000    -0.278078   
C34      C      0.721782180000     0.628372075000     0.664065660000    -0.278078   
C35      C      0.195877480000     0.075250730000     0.149425330000    -0.533976   
C35      C      0.195877480000     0.075250730000     0.649425330000    -0.533976   
C35      C      0.195877480000     0.575250730000     0.149425330000    -0.533976   
C35      C      0.195877480000     0.575250730000     0.649425330000    -0.533976   
C35      C      0.695877480000     0.075250730000     0.149425330000    -0.533976   
C35      C      0.695877480000     0.075250730000     0.649425330000    -0.533976   
C35      C      0.695877480000     0.575250730000     0.149425330000    -0.533976   
C35      C      0.695877480000     0.575250730000     0.649425330000    -0.533976   
C36      C      0.051893195000     0.279539450000     0.136392430000    -0.585215   
C36      C      0.051893195000     0.279539450000     0.636392430000    -0.585215   
C36      C      0.051893195000     0.779539450000     0.136392430000    -0.585215   
C36      C      0.051893195000     0.779539450000     0.636392430000    -0.585215   
C36      C      0.551893195000     0.279539450000     0.136392430000    -0.585215   
C36      C      0.551893195000     0.279539450000     0.636392430000    -0.585215   
C36      C      0.551893195000     0.779539450000     0.136392430000    -0.585215   
C36      C      0.551893195000     0.779539450000     0.636392430000    -0.585215   
C37      C      0.477040700000     0.278208735000     0.137643530000    -0.296937   
C37      C      0.477040700000     0.278208735000     0.637643530000    -0.296937   
C37      C      0.477040700000     0.778208735000     0.137643530000    -0.296937   
C37      C      0.477040700000     0.778208735000     0.637643530000    -0.296937   
C37      C      0.977040700000     0.278208735000     0.137643530000    -0.296937   
C37      C      0.977040700000     0.278208735000     0.637643530000    -0.296937   
C37      C      0.977040700000     0.778208735000     0.137643530000    -0.296937   
C37      C      0.977040700000     0.778208735000     0.637643530000    -0.296937   
Br38     Br     0.288578035000     0.191491350000     0.441804765000    -0.257625   
Br38     Br     0.288578035000     0.191491350000     0.941804765000    -0.257625   
Br38     Br     0.288578035000     0.691491350000     0.441804765000    -0.257625   
Br38     Br     0.288578035000     0.691491350000     0.941804765000    -0.257625   
Br38     Br     0.788578035000     0.191491350000     0.441804765000    -0.257625   
Br38     Br     0.788578035000     0.191491350000     0.941804765000    -0.257625   
Br38     Br     0.788578035000     0.691491350000     0.441804765000    -0.257625   
Br38     Br     0.788578035000     0.691491350000     0.941804765000    -0.257625   
Br39     Br     0.379372550000     0.410714330000     0.449619950000    -0.629336   
Br39     Br     0.379372550000     0.410714330000     0.949619950000    -0.629336   
Br39     Br     0.379372550000     0.910714330000     0.449619950000    -0.629336   
Br39     Br     0.379372550000     0.910714330000     0.949619950000    -0.629336   
Br39     Br     0.879372550000     0.410714330000     0.449619950000    -0.629336   
Br39     Br     0.879372550000     0.410714330000     0.949619950000    -0.629336   
Br39     Br     0.879372550000     0.910714330000     0.449619950000    -0.629336   
Br39     Br     0.879372550000     0.910714330000     0.949619950000    -0.629336   
Br40     Br     0.195773080000     0.444935250000     0.153023550000    -0.549736   
Br40     Br     0.195773080000     0.444935250000     0.653023550000    -0.549736   
Br40     Br     0.195773080000     0.944935250000     0.153023550000    -0.549736   
Br40     Br     0.195773080000     0.944935250000     0.653023550000    -0.549736   
Br40     Br     0.695773080000     0.444935250000     0.153023550000    -0.549736   
Br40     Br     0.695773080000     0.444935250000     0.653023550000    -0.549736   
Br40     Br     0.695773080000     0.944935250000     0.153023550000    -0.549736   
Br40     Br     0.695773080000     0.944935250000     0.653023550000    -0.549736   
N41      N      0.085856275000     0.330150700000     0.136072590000    -0.179548   
N41      N      0.085856275000     0.330150700000     0.636072590000    -0.179548   
N41      N      0.085856275000     0.830150700000     0.136072590000    -0.179548   
N41      N      0.085856275000     0.830150700000     0.636072590000    -0.179548   
N41      N      0.585856275000     0.330150700000     0.136072590000    -0.179548   
N41      N      0.585856275000     0.330150700000     0.636072590000    -0.179548   
N41      N      0.585856275000     0.830150700000     0.136072590000    -0.179548   
N41      N      0.585856275000     0.830150700000     0.636072590000    -0.179548   
N42      N      0.440622200000     0.323686250000     0.152641175000    -0.395731   
N42      N      0.440622200000     0.323686250000     0.652641175000    -0.395731   
N42      N      0.440622200000     0.823686250000     0.152641175000    -0.395731   
N42      N      0.440622200000     0.823686250000     0.652641175000    -0.395731   
N42      N      0.940622200000     0.323686250000     0.152641175000    -0.395731   
N42      N      0.940622200000     0.323686250000     0.652641175000    -0.395731   
N42      N      0.940622200000     0.823686250000     0.152641175000    -0.395731   
N42      N      0.940622200000     0.823686250000     0.652641175000    -0.395731   
Cl43     Cl     0.380208900000     0.403835750000     0.348864465000    -0.315879   
Cl43     Cl     0.380208900000     0.403835750000     0.848864465000    -0.315879   
Cl43     Cl     0.380208900000     0.903835750000     0.348864465000    -0.315879   
Cl43     Cl     0.380208900000     0.903835750000     0.848864465000    -0.315879   
Cl43     Cl     0.880208900000     0.403835750000     0.348864465000    -0.315879   
Cl43     Cl     0.880208900000     0.403835750000     0.848864465000    -0.315879   
Cl43     Cl     0.880208900000     0.903835750000     0.348864465000    -0.315879   
Cl43     Cl     0.880208900000     0.903835750000     0.848864465000    -0.315879   
O44      O      0.260792950000     0.266382950000     0.204810070000     1.28821    
O44      O      0.260792950000     0.266382950000     0.704810070000     1.28821    
O44      O      0.260792950000     0.766382950000     0.204810070000     1.28821    
O44      O      0.260792950000     0.766382950000     0.704810070000     1.28821    
O44      O      0.760792950000     0.266382950000     0.204810070000     1.28821    
O44      O      0.760792950000     0.266382950000     0.704810070000     1.28821    
O44      O      0.760792950000     0.766382950000     0.204810070000     1.28821    
O44      O      0.760792950000     0.766382950000     0.704810070000     1.28821    
O45      O      0.283642700000     0.370633000000     0.202208670000     1.25476    
O45      O      0.283642700000     0.370633000000     0.702208670000     1.25476    
O45      O      0.283642700000     0.870633000000     0.202208670000     1.25476    
O45      O      0.283642700000     0.870633000000     0.702208670000     1.25476    
O45      O      0.783642700000     0.370633000000     0.202208670000     1.25476    
O45      O      0.783642700000     0.370633000000     0.702208670000     1.25476    
O45      O      0.783642700000     0.870633000000     0.202208670000     1.25476    
O45      O      0.783642700000     0.870633000000     0.702208670000     1.25476    
O46      O      0.243800950000     0.282901950000     0.086065115000     0.046762   
O46      O      0.243800950000     0.282901950000     0.586065115000     0.046762   
O46      O      0.243800950000     0.782901950000     0.086065115000     0.046762   
O46      O      0.243800950000     0.782901950000     0.586065115000     0.046762   
O46      O      0.743800950000     0.282901950000     0.086065115000     0.046762   
O46      O      0.743800950000     0.282901950000     0.586065115000     0.046762   
O46      O      0.743800950000     0.782901950000     0.086065115000     0.046762   
O46      O      0.743800950000     0.782901950000     0.586065115000     0.046762   
O47      O      0.266650700000     0.387151950000     0.083463670000     0.088817   
O47      O      0.266650700000     0.387151950000     0.583463670000     0.088817   
O47      O      0.266650700000     0.887151950000     0.083463670000     0.088817   
O47      O      0.266650700000     0.887151950000     0.583463670000     0.088817   
O47      O      0.766650700000     0.387151950000     0.083463670000     0.088817   
O47      O      0.766650700000     0.387151950000     0.583463670000     0.088817   
O47      O      0.766650700000     0.887151950000     0.083463670000     0.088817   
O47      O      0.766650700000     0.887151950000     0.583463670000     0.088817   
O48      O      0.120266430000     0.185763550000     0.153978200000     0.06769    
O48      O      0.120266430000     0.185763550000     0.653978200000     0.06769    
O48      O      0.120266430000     0.685763550000     0.153978200000     0.06769    
O48      O      0.120266430000     0.685763550000     0.653978200000     0.06769    
O48      O      0.620266430000     0.185763550000     0.153978200000     0.06769    
O48      O      0.620266430000     0.185763550000     0.653978200000     0.06769    
O48      O      0.620266430000     0.685763550000     0.153978200000     0.06769    
O48      O      0.620266430000     0.685763550000     0.653978200000     0.06769    
O49      O      0.213333325000     0.235920565000     0.169527320000     0.065912   
O49      O      0.213333325000     0.235920565000     0.669527320000     0.065912   
O49      O      0.213333325000     0.735920565000     0.169527320000     0.065912   
O49      O      0.213333325000     0.735920565000     0.669527320000     0.065912   
O49      O      0.713333325000     0.235920565000     0.169527320000     0.065912   
O49      O      0.713333325000     0.235920565000     0.669527320000     0.065912   
O49      O      0.713333325000     0.735920565000     0.169527320000     0.065912   
O49      O      0.713333325000     0.735920565000     0.669527320000     0.065912   
O50      O      0.326641350000     0.418124500000     0.122356055000     0.08457    
O50      O      0.326641350000     0.418124500000     0.622356055000     0.08457    
O50      O      0.326641350000     0.918124500000     0.122356055000     0.08457    
O50      O      0.326641350000     0.918124500000     0.622356055000     0.08457    
O50      O      0.826641350000     0.418124500000     0.122356055000     0.08457    
O50      O      0.826641350000     0.418124500000     0.622356055000     0.08457    
O50      O      0.826641350000     0.918124500000     0.122356055000     0.08457    
O50      O      0.826641350000     0.918124500000     0.622356055000     0.08457    
O51      O      0.411059915000     0.483014375000     0.128957870000     0.086997   
O51      O      0.411059915000     0.483014375000     0.628957870000     0.086997   
O51      O      0.411059915000     0.983014375000     0.128957870000     0.086997   
O51      O      0.411059915000     0.983014375000     0.628957870000     0.086997   
O51      O      0.911059915000     0.483014375000     0.128957870000     0.086997   
O51      O      0.911059915000     0.483014375000     0.628957870000     0.086997   
O51      O      0.911059915000     0.983014375000     0.128957870000     0.086997   
O51      O      0.911059915000     0.983014375000     0.628957870000     0.086997   
F52      F      0.128784135000     0.068544740000     0.148004150000     0.051727   
F52      F      0.128784135000     0.068544740000     0.648004150000     0.051727   
F52      F      0.128784135000     0.568544740000     0.148004150000     0.051727   
F52      F      0.128784135000     0.568544740000     0.648004150000     0.051727   
F52      F      0.628784135000     0.068544740000     0.148004150000     0.051727   
F52      F      0.628784135000     0.068544740000     0.648004150000     0.051727   
F52      F      0.628784135000     0.568544740000     0.148004150000     0.051727   
F52      F      0.628784135000     0.568544740000     0.648004150000     0.051727   
F53      F      0.052119715000     0.383085070000     0.127137300000     0.068935   
F53      F      0.052119715000     0.383085070000     0.627137300000     0.068935   
F53      F      0.052119715000     0.883085070000     0.127137300000     0.068935   
F53      F      0.052119715000     0.883085070000     0.627137300000     0.068935   
F53      F      0.552119715000     0.383085070000     0.127137300000     0.068935   
F53      F      0.552119715000     0.383085070000     0.627137300000     0.068935   
F53      F      0.552119715000     0.883085070000     0.127137300000     0.068935   
F53      F      0.552119715000     0.883085070000     0.627137300000     0.068935   


