data_I
_chemical_name_common  '/home/sibivarshan_m7/MOFDiff/MOFDiff/results/nh3_optimized_5.0/cif/sample_2'
_cell_length_a  7.80112
_cell_length_b  8.63377
_cell_length_c 11.26427
_cell_angle_alpha 90.09078
_cell_angle_beta  97.16990
_cell_angle_gamma 101.49128
_space_group_name_H-M_alt      'P 1'


loop_
_space_group_symop_operation_xyz
  'x, y, z' 

loop_
_atom_site_label
_atom_site_fract_x
_atom_site_fract_y
_atom_site_fract_z
_atom_site_type_symbol
Zn0   0.13970387 0.70770705 0.7164326    Zn
Zn1   0.77470124 0.75754416 0.61528474    Zn
C2    0.06347048 0.93021595 0.43154213     C
C3    0.8353347 0.536632 0.91151214     C
C4    0.8919273 0.60953283 0.027167577     C
C5    0.99459803 0.78144854 0.22289541     C
C6    0.9410199 0.6859597 0.11862041     C
C7    0.03257823 0.8578013 0.31497616     C
O8    0.93076366 0.98101825 0.46678203     O
O9    0.20491183 0.9076021 0.49988085     O
O10   0.69772863 0.55697685 0.8562131     O
O11   0.9443171 0.5096025 0.84987444     O
N12   0.50671095 0.6867675 0.6814702     N
N13   0.3994506 0.78072625 0.65607464     N
N14   0.46785912 0.5804511 0.77093184     N
N15   0.43830195 0.88705176 0.5666162     N
O16   0.537803 0.61886525 0.8805578     O
O17   0.4130022 0.43140376 0.7419367     O
O18   0.36836752 0.84863865 0.45698923     O
O19   0.49314943 0.036098003 0.59561235     O
C20   0.9656612 0.45363262 0.67832667     C
C21   0.93602514 0.022866068 0.64627373     C
C22   0.8955481 0.2914654 0.6542992     C
C23   0.004121661 0.18878108 0.6453425     C
N24   0.707106 0.24692301 0.6423219     N
N25   0.18327272 0.23897724 0.62075675     N
O26   0.13405311 0.49463773 0.7117512     O
O27   0.76638854 0.97970104 0.6223654     O
O28   0.8531812 0.54736996  0.67188     O
O29   0.047260284 0.9269688 0.66223663     O
O30   0.6181097 0.30143484 0.5522621     O
O31   0.62956053 0.19711642 0.73490745     O
O32   0.30330324 0.16497335 0.66805834     O
O33   0.21790218 0.33376223 0.53323305     O
loop_
_geom_bond_atom_site_label_1
_geom_bond_atom_site_label_2
_geom_bond_distance
_geom_bond_site_symmetry_2
_ccdc_geom_bond_type
Zn0   Zn1    3.04483   1_455     S
Zn0   O9     3.02668       .     S
Zn0   O11    2.65508   1_455     D
Zn0   N13    2.19133       .     S
Zn0   O26    1.83184       .     S
Zn0   O29    2.21678       .     T
Zn1   Zn0    3.04483   1_655     S
Zn1   O8     2.75422       .     T
Zn1   O10    3.27593       .     S
Zn1   N12    2.27628       .     D
Zn1   O27    1.93387       .     S
Zn1   O28    2.10307       .     D
C2    C7     1.42527       .     S
C2    O8     1.30563   1_455     S
C2    O9     1.31243       .     T
C3    C4     1.42527   1_556     S
C3    O10    1.21646       .     T
C3    O11    1.21870       .     S
C4    C3     1.42527   1_554     D
C4    C6     1.20082       .     S
C5    C6     1.40396       .     D
C5    C7     1.20062   1_655     D
C6    C4     1.20082       .     S
C6    C5     1.40396       .     D
C7    C2     1.42527       .     S
C7    C5     1.20062   1_455     D
O8    Zn1    2.75422       .     D
O8    C2     1.30563   1_655     D
O9    Zn0    3.02668       .     D
O9    C2     1.31243       .     S
O10   Zn1    3.27593       .     D
O10   C3     1.21646       .     S
O11   Zn0    2.65508   1_655     D
O11   C3     1.21870       .     D
N12   Zn1    2.27628       .     D
N12   N13    1.28511       .     D
N12   N14    1.38501       .     S
N13   Zn0    2.19133       .     D
N13   N12    1.28511       .     S
N13   N15    1.38503       .     S
N14   N12    1.38501       .     S
N14   O16    1.30038       .     D
N14   O17    1.30005       .     S
N15   N13    1.38503       .     S
N15   O18    1.30037       .     S
N15   O19    1.30004   1_565     D
O16   N14    1.30038       .     D
O17   N14    1.30005       .     D
O18   N15    1.30037       .     D
O19   N15    1.30004   1_545     S
C20   C22    1.41048       .     D
C20   O26    1.29752   1_655     S
C20   O28    1.30286       .     S
C21   C23    1.42567   1_655     S
C21   O27    1.29495   1_545     D
C21   O29    1.31097   1_645     S
C22   C20    1.41048       .     S
C22   C23    1.35418   1_655     S
C22   N24    1.43257       .     D
C23   C21    1.42567   1_455     D
C23   C22    1.35418   1_455     S
C23   N25    1.43993       .     S
N24   C22    1.43257       .     S
N24   O30    1.29944       .     S
N24   O31    1.30146       .     S
N25   C23    1.43993       .     S
N25   O32    1.29763       .     S
N25   O33    1.30216       .     S
O26   Zn0    1.83184       .     S
O26   C20    1.29752   1_455     S
O27   Zn1    1.93387       .     S
O27   C21    1.29495   1_565     S
O28   Zn1    2.10307       .     S
O28   C20    1.30286       .     S
O29   Zn0    2.21678       .     S
O29   C21    1.31097   1_465     S
O30   N24    1.29944       .     S
O31   N24    1.30146       .     S
O32   N25    1.29763       .     S
O33   N25    1.30216       .     S
