data_I
_chemical_name_common  '/home/sibivarshan_m7/MOFDiff/MOFDiff/results/nh3_optimized_5.0/cif/sample_3'
_cell_length_a  9.95630
_cell_length_b 11.03231
_cell_length_c 19.52794
_cell_angle_alpha 88.67831
_cell_angle_beta  87.15603
_cell_angle_gamma 89.44512
_space_group_name_H-M_alt      'P 1'


loop_
_space_group_symop_operation_xyz
  'x, y, z' 

loop_
_atom_site_label
_atom_site_fract_x
_atom_site_fract_y
_atom_site_fract_z
_atom_site_type_symbol
H0    0.82508874 0.026117206 0.45660865     H
H1    0.39347267 0.98037314 0.4721057     H
H2    0.8210251 0.021442533 0.33206934     H
H3    0.38981023 0.9778087 0.34737363     H
H4    0.47145268 0.8428283 0.25424296     H
H5    0.73409224 0.1528343 0.23992437     H
H6    0.46746656 0.84111154 0.1292477     H
H7    0.7336955 0.14861715 0.11500653     H
H8    0.5686818 0.1868844 0.026509793     H
C9    0.5993929 0.99297965 0.03834263     C
H10   0.6299686 0.79872346 0.03235931     H
H11   0.5693669 0.18500865 0.9018093     H
H12   0.6284796 0.7958789 0.90761477     H
C13   0.729499 0.015497208 0.4333571     C
C14   0.48733962 0.9894668 0.44204488     C
C15   0.72725666 0.013398647 0.36234626     C
C16   0.48520958 0.9873448 0.37099117     C
C17   0.60512346 0.9994947 0.33081082     C
C18   0.60954756 0.003630519 0.47365296     C
C19   0.527913 0.9104833 0.22415864     C
C20   0.67656046 0.08393073 0.21611008     C
C21   0.5267379 0.90875757 0.15306295     C
C22   0.6752637 0.082298875 0.14507698     C
C23   0.60041773 0.994659 0.11319321     C
C24   0.60299414 0.99800724 0.2559961     C
C25   0.58284205 0.101394534 0.00080058933     C
C26   0.61556995 0.8831327 0.004116935     C
C27   0.58263993 0.100103855 0.9297221     C
C28   0.61542535 0.88174105 0.9329984     C
C29   0.599009 0.99027646 0.8953497     C
C30   0.598428 0.98904186 0.8205348     C
C31   0.6121064 0.0059497356 0.54833716     C
O32   0.58362144 0.08929074 0.7866906     O
O33   0.6121159 0.887807  0.78939     O
O34   0.5030993 0.9940824 0.58519155     O
O35   0.72352546 0.019675493 0.576849     O
C36   0.043333516 0.060324788 0.7497953     C
C37   0.20048009 0.06064701 0.7359821     C
C38   0.18371609 0.014358044 0.61200756     C
C39   0.030651707 0.05647397 0.6215517     C
C40   0.0035522452 0.8831818 0.69294804     C
C41   0.16441227 0.86137724 0.69801235     C
H42   0.024940388 0.9942394 0.79366326     H
H43   0.24476753 0.026409388 0.78402746     H
H44   0.17608124 0.9301061 0.5815167     H
H45   0.97716844 0.006045699 0.58223355     H
H46   0.9497798 0.83766246 0.73757243     H
H47   0.18597025 0.828276 0.7506799     H
H48   0.1986819 0.7867615 0.66379076     H
H49   0.9673891 0.8358122 0.647682     H
N50   0.9676521 0.01698935 0.6898787     N
N51   0.24282873 0.9754714 0.68012065     N
N52   0.99522924 0.17115307  0.78013     N
N53   0.25191134 0.1839968 0.7244453     N
N54   0.27052936 0.08983493 0.56428856     N
N55   0.006051908 0.18397331 0.60397077     N
O56   0.92983705 0.25174654 0.7459648     O
O57   0.035618164 0.19519925 0.84067476     O
O58   0.32162634 0.21359038 0.66965854     O
O59   0.23849659 0.26435673 0.77183706     O
O60   0.23915745 0.20056987 0.5471246     O
O61   0.3505557 0.035036445 0.52055275     O
O62   0.062365245 0.2705505 0.63588333     O
O63   0.9567984 0.20915484 0.5446968     O
H64   0.49911052 0.4135725 0.7947975     H
H65   0.62352365 0.57549274 0.8010106     H
H66   0.43412435 0.46262568 0.59782004     H
H67   0.73590004 0.3185678 0.6526031     H
H68   0.7054641 0.31023982 0.7415018     H
H69   0.5929904 0.40496945 0.5761457     H
H70   0.6827069 0.5929542 0.57760394     H
H71   0.41285554 0.717399 0.73744845     H
H72   0.4249069 0.6724204 0.82553273     H
H73   0.5434145 0.7753242 0.7897843     H
H74   0.4162081 0.6711186 0.62953967     H
H75   0.5511419 0.77076405 0.5929267     H
H76   0.47623396 0.6604206 0.5425813     H
C77   0.7434862 0.72917724 0.6889773     C
C78   0.48483896 0.46943712 0.74729186     C
C79   0.5669162 0.58831316 0.75409853     C
C80   0.53768957 0.45862842 0.6162723     C
C81   0.6947664 0.37135735 0.69643426     C
C82   0.5429748 0.3913418 0.6862115     C
C83   0.67071193 0.6055572 0.690585     C
C84   0.6040434 0.585172 0.6191524     C
C85   0.7735925 0.49512148 0.70045877     C
C86   0.4682967 0.27186894 0.6844766     C
C87   0.48245835 0.6963449 0.77707976     C
C88   0.50597847 0.6796756 0.59540075     C
N89   0.8349777 0.5014387 0.7689298     N
N90   0.8800084 0.49916986 0.644457     N
N91   0.3396446 0.49371383 0.7451124     N
O92   0.87513024 0.72469324 0.682314     O
O93   0.6714016 0.830901 0.6916469     O
O94   0.33643025 0.27801076 0.68810827     O
O95   0.54015684 0.17179997 0.67874265     O
O96   0.9152653 0.5886463 0.78311485     O
O97   0.79851896 0.42775607 0.81947637     O
O98   0.8566502 0.4649385 0.58275837     O
O99   0.9994045 0.5390277 0.65497893     O
O100  0.28028375 0.50635046 0.68771684     O
O101  0.26802593 0.5032973 0.80205315     O
Zn102 0.4797704 0.92734706 0.7049958    Zn
Zn103 0.7351172 0.07275694 0.66268724    Zn
loop_
_geom_bond_atom_site_label_1
_geom_bond_atom_site_label_2
_geom_bond_distance
_geom_bond_site_symmetry_2
_ccdc_geom_bond_type
H0    C13    1.08313       .     S
H1    C14    1.08293       .     S
H2    C15    1.08325       .     S
H3    C16    1.08332       .     S
H4    C19    1.08322       .     A
H5    C20    1.08323       .     A
H6    C21    1.08317       .     A
H7    C22    1.08310       .     D
H8    C25    1.08338       .     A
C9    C23    1.46277       .     A
C9    C25    1.40104   1_565     A
C9    C26    1.40149       .     D
H10   C26    1.08327       .     S
H11   C27    1.08313       .     S
H12   C28    1.08295       .     A
C13   H0     1.08313       .     A
C13   C15    1.38871       .     S
C13   C18    1.40273       .     S
C14   H1     1.08293       .     A
C14   C16    1.38949       .     S
C14   C18    1.40304   1_565     A
C15   H2     1.08325       .     A
C15   C13    1.38871       .     S
C15   C17    1.40132   1_545     A
C16   H3     1.08332       .     S
C16   C14    1.38949       .     A
C16   C17    1.40154       .     S
C17   C15    1.40132   1_565     A
C17   C16    1.40154       .     A
C17   C24    1.46265       .     S
C18   C13    1.40273       .     A
C18   C14    1.40304   1_545     S
C18   C31    1.46073       .     A
C19   H4     1.08322       .     S
C19   C21    1.38955       .     S
C19   C24    1.40196       .     A
C20   H5     1.08323       .     S
C20   C22    1.38836       .     S
C20   C24    1.40161   1_545     S
C21   H6     1.08317       .     S
C21   C19    1.38955       .     S
C21   C23    1.40185       .     S
C22   H7     1.08310       .     A
C22   C20    1.38836       .     A
C22   C23    1.40199   1_545     A
C23   C9     1.46277       .     D
C23   C21    1.40185       .     A
C23   C22    1.40199   1_565     A
C24   C17    1.46265       .     A
C24   C19    1.40196       .     D
C24   C20    1.40161   1_565     S
C25   H8     1.08338       .     S
C25   C9     1.40104   1_545     A
C25   C27    1.38852   1_554     A
C26   C9     1.40149       .     S
C26   H10    1.08327       .     S
C26   C28    1.38931   1_554     A
C27   H11    1.08313       .     S
C27   C25    1.38852   1_556     A
C27   C29    1.40287   1_545     A
C28   H12    1.08295       .     S
C28   C26    1.38931   1_556     A
C28   C29    1.40304       .     S
C29   C27    1.40287   1_565     A
C29   C28    1.40304       .     S
C29   C30    1.46166       .     A
C30   C29    1.46166       .     A
C30   O32    1.28628   1_565     S
C30   O33    1.28686       .     A
C31   C18    1.46073       .     S
C31   O34    1.27823   1_545     A
C31   O35    1.27748       .     S
O32   C30    1.28628   1_545     S
O32   Zn103  2.79728       .     A
O33   C30    1.28686       .     S
O33   Zn102  2.19404       .     S
O34   C31    1.27823   1_565     D
O34   Zn102  2.43708       .     S
O35   C31    1.27748       .     S
O35   Zn103  1.79773       .     D
C36   C37    1.57446       .     D
C36   H42    1.12122   1_545     S
C36   N50    1.51183   1_455     S
C36   N52    1.43847   1_455     S
C37   C36    1.57446       .     S
C37   H43    1.11304       .     S
C37   N51    1.49824   1_545     S
C37   N53    1.46722       .     S
C38   C39    1.59222       .     D
C38   H44    1.12056   1_545     S
C38   N51    1.53169   1_545     S
C38   N54    1.48560       .     S
C39   C38    1.59222       .     S
C39   H45    1.11741   1_455     S
C39   N50    1.50298   1_455     S
C39   N55    1.46144       .     S
C40   C41    1.62476       .     D
C40   H46    1.11217   1_455     S
C40   H49    1.11385   1_455     S
C40   N50    1.51603   1_465     S
C41   C40    1.62476       .     S
C41   H47    1.11368       .     S
C41   H48    1.11263       .     D
C41   N51    1.51251       .     D
H42   C36    1.12122   1_565     D
H43   C37    1.11304       .     D
H44   C38    1.12056   1_565     S
H45   C39    1.11741   1_655     S
H46   C40    1.11217   1_655     D
H47   C41    1.11368       .     D
H48   C41    1.11263       .     S
H49   C40    1.11385   1_655     S
N50   C36    1.51183   1_655     S
N50   C39    1.50298   1_655     S
N50   C40    1.51603   1_645     S
N50   Zn103  2.46980       .     S
N51   C37    1.49824   1_565     S
N51   C38    1.53169   1_565     D
N51   C41    1.51251       .     S
N51   Zn102  2.48205       .     S
N52   C36    1.43847   1_655     S
N52   O56    1.29000       .     S
N52   O57    1.30141   1_655     S
N53   C37    1.46722       .     S
N53   O58    1.28358       .     S
N53   O59    1.29753       .     D
N54   C38    1.48560       .     S
N54   O60    1.29864       .     S
N54   O61    1.29488       .     S
N55   C39    1.46144       .     S
N55   O62    1.29905       .     S
N55   O63    1.30242   1_455     D
O56   N52    1.29000       .     D
O57   N52    1.30141   1_455     D
O58   N53    1.28358       .     D
O59   N53    1.29753       .     S
O60   N54    1.29864       .     D
O61   N54    1.29488       .     S
O62   N55    1.29905       .     S
O63   N55    1.30242   1_655     S
H64   C78    1.11609       .     S
H65   C79    1.10481       .     D
H66   C80    1.10917       .     S
H67   C81    1.10594       .     S
H68   C81    1.10501       .     S
H69   C80    1.11350       .     D
H70   C84    1.10186       .     S
H71   C87    1.08395       .     S
H72   C87    1.10945       .     S
H73   C87    1.10645       .     S
H74   C88    1.09170       .     S
H75   C88    1.10397       .     S
H76   C88    1.11282       .     D
C77   C83    1.54947       .     S
C77   O92    1.31126       .     S
C77   O93    1.32689       .     D
C78   H64    1.11609       .     S
C78   C79    1.56365       .     S
C78   C82    1.57140       .     S
C78   N91    1.47016       .     S
C79   H65    1.10481       .     S
C79   C78    1.56365       .     S
C79   C83    1.58373       .     D
C79   C87    1.51552       .     S
C80   H66    1.10917       .     S
C80   H69    1.11350       .     S
C80   C82    1.54232       .     S
C80   C84    1.55364       .     S
C81   H67    1.10594       .     S
C81   H68    1.10501       .     S
C81   C82    1.54722       .     S
C81   C85    1.58691       .     D
C82   C78    1.57140       .     S
C82   C80    1.54232       .     D
C82   C81    1.54722       .     S
C82   C86    1.52144       .     D
C83   C77    1.54947       .     S
C83   C79    1.58373       .     S
C83   C84    1.59570       .     S
C83   C85    1.59856       .     S
C84   H70    1.10186       .     D
C84   C80    1.55364       .     S
C84   C83    1.59570       .     S
C84   C88    1.50277       .     S
C85   C81    1.58691       .     D
C85   C83    1.59856       .     S
C85   N89    1.50081       .     S
C85   N90    1.48465       .     S
C86   C82    1.52144       .     S
C86   O94    1.31248       .     S
C86   O95    1.31365       .     S
C87   H71    1.08395       .     D
C87   H72    1.10945       .     S
C87   H73    1.10645       .     S
C87   C79    1.51552       .     D
C88   H74    1.09170       .     S
C88   H75    1.10397       .     S
C88   H76    1.11282       .     S
C88   C84    1.50277       .     S
N89   C85    1.50081       .     S
N89   O96    1.30020       .     S
N89   O97    1.30384       .     D
N90   C85    1.48465       .     S
N90   O98    1.30340       .     S
N90   O99    1.29893       .     S
N91   C78    1.47016       .     S
N91   O100   1.29688       .     S
N91   O101   1.29665       .     S
O92   C77    1.31126       .     S
O92   Zn103  4.08862   1_565     S
O93   C77    1.32689       .     D
O93   Zn102  2.18276       .     S
O94   C86    1.31248       .     S
O94   Zn102  4.12222   1_545     S
O95   C86    1.31365       .     S
O95   Zn103  2.23033       .     S
O96   N89    1.30020       .     S
O97   N89    1.30384       .     S
O98   N90    1.30340       .     S
O99   N90    1.29893       .     S
O100  N91    1.29688       .     S
O101  N91    1.29665       .     S
Zn102 O33    2.19404       .     S
Zn102 O34    2.43708       .     S
Zn102 N51    2.48205       .     S
Zn102 O93    2.18276       .     S
Zn102 O94    4.12222   1_565     S
Zn102 Zn103  3.08688   1_565     S
Zn103 O32    2.79728       .     S
Zn103 O35    1.79773       .     S
Zn103 N50    2.46980       .     S
Zn103 O92    4.08862   1_545     S
Zn103 O95    2.23033       .     S
Zn103 Zn102  3.08688   1_545     S
