data_I
_chemical_name_common  '/home/sibivarshan_m7/MOFDiff/MOFDiff/results/nh3_optimized_5.0/cif/sample_6'
_cell_length_a  9.90985
_cell_length_b 16.04636
_cell_length_c 21.37669
_cell_angle_alpha 91.14458
_cell_angle_beta  91.26111
_cell_angle_gamma 100.89285
_space_group_name_H-M_alt      'P 1'


loop_
_space_group_symop_operation_xyz
  'x, y, z' 

loop_
_atom_site_label
_atom_site_fract_x
_atom_site_fract_y
_atom_site_fract_z
_atom_site_type_symbol
H0    0.6873312 0.8614391 0.2628966     H
H1    0.8287994 0.91609055 0.30932575     H
H2    0.86325926 0.7437885 0.26264444     H
H3    0.9029192 0.79474056 0.33662415     H
H4    0.6467492 0.77060306 0.35858145     H
H5    0.7171069 0.6749606 0.35041648     H
H6    0.61530197 0.70816356 0.2879693     H
H7    0.3948502 0.12647328 0.16838133     H
H8    0.31396082 0.14644332 0.24045476     H
H9    0.20087707 0.18539238 0.11177731     H
H10   0.16318509 0.22444099 0.18736331     H
H11   0.41635022 0.2984757 0.19830626     H
H12   0.3192413 0.33704504 0.13626608     H
H13   0.43648773 0.26720187 0.11798535     H
C14   0.970079 0.95786023 0.22336859     C
C15   0.11632465 0.94306076 0.23435041     C
C16   0.79899776 0.86652493 0.27222994     C
C17   0.8233602 0.7821013 0.29865316     C
C18   0.69281745 0.7306696 0.32560125     C
C19   0.2965651 0.13118456 0.18949467     C
C20   0.2452439 0.20531377 0.15895806     C
C21   0.36170757 0.28175312 0.15260094     C
N22   0.93874013 0.033818502 0.22242776     N
N23   0.22501849 0.99681693 0.21952273     N
Cl24  0.03707625 0.10510179 0.27444747    Cl
Cl25  0.13971153 0.8481157 0.26838356    Cl
O26   0.86776036 0.886003 0.21517622     O
O27   0.19941184 0.055457097 0.17842649     O
H28   0.65741473 0.5626599 0.93020296     H
H29   0.9256852 0.7660659 0.0066740513     H
H30   0.95349485 0.8769798 0.029747844     H
H31   0.019606233 0.8022455 0.07810414     H
H32   0.8201228 0.84052265 0.12509167     H
H33   0.78040695 0.7322239 0.10419071     H
H34   0.2042358 0.78821105 0.01028204     H
H35   0.22986434 0.90295404 0.016061068     H
H36   0.109336466 0.84586996 0.9592552     H
H37   0.33383358 0.9149933 0.91110295     H
H38   0.28361312 0.8019881 0.8997142     H
H39   0.41594067 0.73356575 0.7935157     H
H40   0.46423963 0.95259523 0.02435875     H
H41   0.73250204 0.65224326 0.01981163     H
C42   0.64546645 0.9342434 0.11016083     C
C43   0.6175529 0.8824596 0.053149223     C
C44   0.5475417 0.6505323 0.88596183     C
C45   0.66722405 0.6752333 0.98573774     C
C46   0.62413067 0.62311643 0.9341557     C
C47   0.5062688 0.7298418 0.8908197     C
C48   0.52606386 0.5988001 0.82862365     C
C49   0.5288467 0.7759939 0.9487103     C
C50   0.62542635 0.75380003 0.99294996     C
C51   0.6767469 0.8100359 0.043544292     C
C52   0.512661 0.89898974 0.013571262     C
C53   0.46051928 0.84376305 0.96395844     C
C54   0.79978955 0.7964564 0.084076405     C
C55   0.9322544 0.8111106 0.047119975     C
C56   0.3226637 0.85305715 0.934667     C
C57   0.2102722 0.84723413 0.9833051     C
C58   0.46933892 0.7708854 0.8324486     C
O59   0.5033822 0.8474541 0.8264236     O
O60   0.67520314 0.015186548 0.107251525     O
O61   0.6279294 0.5721997 0.8055419     O
O62   0.6268735 0.8975326 0.16259062     O
O63   0.4072256 0.5805501 0.8020882     O
Zn64  0.74338275 0.031959843 0.22540134    Zn
Zn65  0.43149552 0.0060347877 0.2109418    Zn
Zn66  0.43106616 0.50142735 0.7156985    Zn
Zn67  0.74204713 0.53387046 0.72287166    Zn
H68   0.9722471 0.46729845 0.8559881     H
H69   0.09844104 0.59855765 0.9318057     H
H70   0.0880854 0.27322245 0.81208575     H
H71   0.2816112 0.545889 0.8580749     H
H72   0.17168495 0.49736753 0.6133286     H
H73   0.8482532 0.5881183 0.6197424     H
C74   0.046986908 0.5399336 0.7744355     C
C75   0.052347843 0.52168566 0.84261596     C
C76   0.19709714 0.5021208 0.83278894     C
C77   0.9352063 0.5577275 0.614286     C
C78   0.06324792 0.6000538 0.8835718     C
C79   0.17848513 0.5258596 0.7660612     C
C80   0.13582653 0.5055041 0.65977806     C
C81   0.00083618826 0.52286327 0.6683437     C
S82   0.19975364 0.3933554 0.8480671     S
N83   0.22418249 0.5046422 0.7094796     N
N84   0.94799894 0.52354187 0.7280015     N
O85   0.98538893 0.5596839 0.5626178     O
O86   0.039629456 0.66618335 0.86264616     O
O87   0.34492385 0.3787434 0.84845304     O
O88   0.14119716 0.37311688 0.91148823     O
O89   0.10373227 0.33045113 0.7938821     O
H90   0.38329223 0.4259753 0.479778     H
H91   0.6043384 0.15241088 0.39544883     H
H92   0.72238606 0.15547699 0.47492194     H
H93   0.5653259 0.4538768 0.5544717     H
H94   0.19790633 0.15565705 0.2714483     H
H95   0.23646511 0.41222402 0.3994856     H
H96   0.9542157 0.25878242 0.6756151     H
H97   0.017588973 0.1802316 0.58755475     H
C98   0.45810747 0.13320588 0.29426804     C
C99    0.71143 0.40041333 0.6452527     C
C100  0.3271726 0.29435018 0.39499912     C
C101  0.4304139 0.18143547 0.34978557     C
C102  0.83667046 0.2948021 0.59341496     C
C103  0.83106405 0.22639312 0.55038255     C
C104  0.7272528 0.21151476 0.5038751     C
C105  0.63364774 0.26687738 0.4952242     C
C106  0.6408558 0.33641586 0.5380181     C
C107  0.5316999 0.2544489 0.44565028     C
C108  0.4347446 0.3094888 0.44136629     C
C109  0.44950083 0.3798264 0.48266152     C
C110  0.55373996 0.394858 0.5278252     C
C111  0.5267337 0.19092731 0.3988165     C
C112  0.3272228 0.23098269 0.3479127     C
C113  0.7348126 0.34661514 0.5901244     C
C114  0.22535421 0.21768574 0.2944511     C
C115  0.21409512 0.3434549 0.3964581     C
C116  0.946302 0.30856517 0.64287907     C
C117  0.9331445 0.16891833 0.55348474     C
O118  0.4894056 0.17441727 0.24465583     O
O119  0.5882388 0.41026378 0.657374     O
O120  0.45362663 0.052764602 0.29539898     O
O121  0.8106346 0.429735 0.68403924     O
O122  0.17588834 0.27597305 0.2738009     O
O123  0.09425331 0.30679387 0.39502186     O
O124  0.03220117 0.3741034 0.64530426     O
O125  0.924806 0.10792055 0.51752985     O
H126  0.36190176 0.069275185 0.9464718     H
H127  0.6679005 0.38970968 0.9053886     H
H128  0.7628923 0.3939407 0.9911228     H
H129  0.42062065 0.093144424 0.053515434     H
H130  0.49302647 0.27076975 0.70625955     H
H131  0.27912936 0.057841104 0.84940016     H
H132  0.8628227 0.31695992 0.20691264     H
H133  0.877398 0.45003527 0.15528774     H
C134  0.5689206 0.3951861 0.7943767     C
C135  0.610613 0.13655058 0.14336121     C
C136  0.4472229 0.17320284 0.8501844     C
C137  0.5624062 0.31797993 0.83035785     C
C138  0.70935804 0.29200515 0.12750721     C
C139  0.7565033 0.3567705 0.08520615     C
C140  0.7170638 0.34507558 0.021931171     C
C141  0.6222591 0.2731118 0.9994864     C
C142  0.5733499 0.20861936 0.04234898     C
C143  0.57595706 0.26287004 0.9353552     C
C144  0.48639125 0.18665874 0.91455775     C
C145  0.43514892 0.12632367 0.9589221     C
C146  0.47285807 0.13900201 0.021519065     C
C147  0.61185855 0.327552 0.8918626     C
C148  0.48296133 0.24038821 0.80807716     C
C149  0.62516725 0.21465497 0.105201125     C
C150  0.43343288 0.23319325 0.7413714     C
C151  0.3715495 0.08893328 0.826912     C
C152  0.75417143 0.30526417 0.1941545     C
C153  0.8485148 0.4376413 0.10632086     C
O154  0.45573962 0.41833764 0.78118837     O
O155  0.602098 0.06333642 0.11577618     O
O156  0.6838811 0.43905297 0.7775195     O
O157  0.6204101 0.14258863 0.20334578     O
O158  0.32374692 0.18864001 0.72533834     O
O159  0.41360193 0.053112395 0.7825115     O
O160  0.6700064 0.30721593 0.23476183     O
O161  0.8930954 0.49221686 0.06910193     O
H162  0.81005967 0.62273955 0.48371616     H
H163  0.5554051 0.8784701 0.3951053     H
H164  0.43011975 0.8700173 0.46984115     H
H165  0.62389857 0.5865147 0.55082047     H
H166  0.9767128 0.89550847 0.28699028     H
H167  0.96303004 0.64317876 0.4094408     H
H168  0.19398525 0.75847244 0.65968513     H
H169  0.12606412 0.8312809 0.5704906     H
C170  0.7086862 0.90401995 0.30003136     C
C171  0.46151203 0.6321178 0.6366215     C
C172  0.855347 0.7539202 0.40323967     C
C173  0.73893166 0.8587386 0.35580832     C
C174  0.3243938  0.72855 0.5816112     C
C175  0.3240262 0.7954954 0.5398999     C
C176  0.4306469 0.8151022 0.4977105     C
C177  0.53365153 0.7656741 0.49185774     C
C178  0.5325752 0.69753456 0.5332515     C
C179  0.63897234 0.7827506 0.4464966     C
C180  0.7449709 0.7338585 0.4451392     C
C181  0.73649293 0.6645226 0.48473173     C
C182  0.62956834 0.6447297 0.5255604     C
C183  0.63893807 0.84483296 0.40089014     C
C184  0.8502819 0.8155845 0.35718408     C
C185  0.43482313 0.68309003 0.58148515     C
C186  0.95571303  0.83347 0.30795103     C
C187  0.9763659 0.7117541 0.4083325     C
C188  0.21149747 0.7097587 0.6265444     C
C189  0.21260272 0.8464929 0.53991556     C
O190  0.6867119 0.8614761 0.24864906     O
O191  0.58646864 0.62907696 0.6533514     O
O192  0.7019853 0.98313653 0.3025598     O
O193  0.36216658 0.5985172 0.67105967     O
O194  0.0154515505 0.7787284 0.2883603     O
O195  0.09257722 0.75400597 0.41210303     O
O196  0.13352673 0.64099425 0.6246374     O
O197  0.2154585 0.9063855 0.50526464     O
loop_
_geom_bond_atom_site_label_1
_geom_bond_atom_site_label_2
_geom_bond_distance
_geom_bond_site_symmetry_2
_ccdc_geom_bond_type
H0    C16    1.10749       .     S
H1    C16    1.10650       .     S
H2    C17    1.10144       .     S
H3    C17    1.10743       .     S
H4    C18    1.10578       .     S
H5    C18    1.11044       .     S
H6    C18    1.10634       .     S
H7    C19    1.09722       .     S
H8    C19    1.11422       .     S
H9    C20    1.10778       .     S
H10   C20    1.11032       .     S
H11   C21    1.10956       .     S
H12   C21    1.11051       .     S
H13   C21    1.11080       .     S
C14   C15    1.52618   1_655     D
C14   N22    1.31386   1_565     S
C14   O26    1.38944       .     S
C15   C14    1.52618   1_455     S
C15   N23    1.29598       .     S
C15   Cl25   1.75340       .     S
C16   H0     1.10749       .     S
C16   H1     1.10650       .     S
C16   C17    1.53646       .     S
C16   O26    1.42156       .     S
C17   H2     1.10144       .     S
C17   H3     1.10743       .     S
C17   C16    1.53646       .     S
C17   C18    1.52800       .     S
C18   H4     1.10578       .     S
C18   H5     1.11044       .     S
C18   H6     1.10634       .     S
C18   C17    1.52800       .     S
C19   H7     1.09722       .     S
C19   H8     1.11422       .     S
C19   C20    1.53125       .     S
C19   O27    1.41274       .     S
C20   H9     1.10778       .     S
C20   H10    1.11032       .     S
C20   C19    1.53125       .     S
C20   C21    1.52758       .     S
C21   H11    1.10956       .     S
C21   H12    1.11051       .     D
C21   H13    1.11080       .     S
C21   C20    1.52758       .     S
N22   C14    1.31386   1_545     S
N22   Cl24   1.72475   1_655     S
N22   Zn64   1.93302       .     S
N23   C15    1.29598       .     S
N23   O27    1.35463   1_565     S
N23   Zn65   2.03605   1_565     S
Cl24  N22    1.72475   1_455     S
Cl25  C15    1.75340       .     S
O26   C14    1.38944       .     S
O26   C16    1.42156       .     S
O27   C19    1.41274       .     S
O27   N23    1.35463   1_545     D
H28   C46    1.08440       .     S
H29   C55    1.10860       .     S
H30   C55    1.11104       .     S
H31   C55    1.11056   1_455     S
H32   C54    1.10586       .     S
H33   C54    1.10934       .     D
H34   C57    1.11134   1_554     D
H35   C57    1.10942   1_554     S
H36   C57    1.11083       .     S
H37   C56    1.11113       .     S
H38   C56    1.10568       .     A
H39   C58    1.08269       .     A
H40   C52    1.08456       .     A
H41   C45    1.07949   1_554     A
C42   C43    1.45261       .     A
C42   O60    1.27948   1_565     S
C42   O62    1.27732       .     S
C43   C42    1.45261       .     S
C43   C51    1.41076       .     A
C43   C52    1.39323       .     S
C44   C46    1.39314       .     A
C44   C47    1.41102       .     A
C44   C48    1.45527       .     S
C45   H41    1.07949   1_556     A
C45   C46    1.38023       .     S
C45   C50    1.40611       .     A
C46   H28    1.08440       .     S
C46   C44    1.39314       .     A
C46   C45    1.38023       .     S
C47   C44    1.41102       .     S
C47   C49    1.42074       .     S
C47   C58    1.49281       .     S
C48   C44    1.45527       .     S
C48   O61    1.27320       .     S
C48   O63    1.27595       .     S
C49   C47    1.42074       .     S
C49   C50    1.42816       .     D
C49   C53    1.42166       .     S
C50   C45    1.40611       .     S
C50   C49    1.42816       .     S
C50   C51    1.41634   1_556     S
C51   C43    1.41076       .     S
C51   C50    1.41634   1_554     D
C51   C54    1.53181       .     D
C52   H40    1.08456       .     S
C52   C43    1.39323       .     S
C52   C53    1.39369   1_554     S
C53   C49    1.42166       .     A
C53   C52    1.39369   1_556     A
C53   C56    1.52437       .     A
C54   H32    1.10586       .     A
C54   H33    1.10934       .     A
C54   C51    1.53181       .     S
C54   C55    1.52938       .     S
C55   H29    1.10860       .     S
C55   H30    1.11104       .     A
C55   H31    1.11056   1_655     S
C55   C54    1.52938       .     A
C56   H37    1.11113       .     A
C56   H38    1.10568       .     S
C56   C53    1.52437       .     A
C56   C57    1.53160       .     S
C57   H34    1.11134   1_556     A
C57   H35    1.10942   1_556     S
C57   H36    1.11083       .     A
C57   C56    1.53160       .     S
C58   H39    1.08269       .     S
C58   C47    1.49281       .     S
C58   O59    1.22129       .     S
O59   C58    1.22129       .     S
O60   C42    1.27948   1_545     S
O60   Zn65   3.29879       .     S
O61   C48    1.27320       .     S
O61   Zn67   2.25559       .     S
O62   C42    1.27732       .     S
O62   Zn64   2.58139   1_565     S
O63   C48    1.27595       .     S
O63   Zn66   2.26210       .     S
Zn64  N22    1.93302       .     S
Zn64  O62    2.58139   1_545     S
Zn64  Zn65   3.04766       .     S
Zn64  O118   3.72988       .     S
Zn64  O155   2.80617       .     S
Zn64  O157   2.38421       .     S
Zn65  N23    2.03605   1_545     S
Zn65  O60    3.29879       .     S
Zn65  Zn64   3.04766       .     S
Zn65  O120   1.93293       .     S
Zn65  O190   3.82483   1_545     S
Zn65  O192   3.36537   1_545     S
Zn66  O63    2.26210       .     S
Zn66  Zn67   3.02680       .     D
Zn66  N83    2.06200       .     S
Zn66  O119   2.64464       .     D
Zn66  O154   1.99500       .     S
Zn66  O193   2.05832       .     S
Zn67  O61    2.25559       .     S
Zn67  Zn66   3.02680       .     S
Zn67  N84    2.07935       .     D
Zn67  O121   2.08374       .     S
Zn67  O156   1.94448       .     S
Zn67  O191   2.79276       .     S
H68   C75    1.10976   1_655     S
H69   C78    1.08336       .     S
H70   O89    0.99090       .     S
H71   C76    1.10881       .     S
H72   C80    1.07570       .     S
H73   C77    1.07466       .     S
C74   C75    1.49409       .     S
C74   C79    1.37879       .     S
C74   N84    1.36599   1_455     S
C75   H68    1.10976   1_455     S
C75   C74    1.49409       .     S
C75   C76    1.54310       .     S
C75   C78    1.50335       .     D
C76   H71    1.10881       .     S
C76   C75    1.54310       .     D
C76   C79    1.50016       .     S
C76   S82    1.78694       .     S
C77   H73    1.07466       .     S
C77   C81    1.48377   1_655     S
C77   O85    1.21978       .     D
C78   H69    1.08336       .     S
C78   C75    1.50335       .     S
C78   O86    1.22029       .     D
C79   C74    1.37879       .     S
C79   C76    1.50016       .     D
C79   N83    1.36010       .     S
C80   H72    1.07570       .     A
C80   C81    1.43186       .     A
C80   N83    1.36377       .     A
C81   C77    1.48378   1_455     D
C81   C80    1.43186       .     S
C81   N84    1.38983   1_455     S
S82   C76    1.78694       .     S
S82   O87    1.50057       .     A
S82   O88    1.50373       .     A
S82   O89    1.67563       .     A
N83   Zn66   2.06200       .     A
N83   C79    1.36010       .     A
N83   C80    1.36377       .     S
N84   Zn67   2.07935       .     A
N84   C74    1.36599   1_655     A
N84   C81    1.38983   1_655     A
O85   C77    1.21978       .     S
O86   C78    1.22029       .     A
O87   S82    1.50057       .     D
O88   S82    1.50373       .     A
O89   H70    0.99090       .     A
O89   S82    1.67563       .     S
H90   C109   1.07997       .     S
H91   C111   1.07653       .     A
H92   C104   1.07425       .     S
H93   C110   1.08120       .     A
H94   C114   1.08568       .     S
H95   C115   1.08402       .     S
H96   C116   1.08516       .     S
H97   C117   1.08358   1_455     D
C98   C101   1.46308       .     S
C98   O118   1.27407       .     D
C98   O120   1.28387       .     S
C99   C113   1.49488       .     S
C99   O119   1.29140       .     D
C99   O121   1.28415       .     S
C100  C108   1.42262       .     D
C100  C112   1.41647       .     S
C100  C115   1.48722       .     A
C101  C98    1.46308       .     A
C101  C111   1.38834       .     A
C101  C112   1.40932       .     D
C102  C103   1.41019       .     S
C102  C113   1.42529       .     S
C102  C116   1.48209       .     S
C103  C102   1.41019       .     A
C103  C104   1.39871       .     A
C103  C117   1.49345       .     A
C104  H92    1.07425       .     A
C104  C103   1.39871       .     A
C104  C105   1.41221       .     S
C105  C104   1.41221       .     A
C105  C106   1.41890       .     A
C105  C107   1.43240       .     A
C106  C105   1.41890       .     S
C106  C110   1.40644       .     A
C106  C113   1.42263       .     D
C107  C105   1.43240       .     A
C107  C108   1.42536       .     A
C107  C111   1.40776       .     S
C108  C100   1.42262       .     S
C108  C107   1.42536       .     A
C108  C109   1.40237       .     S
C109  H90    1.07997       .     A
C109  C108   1.40237       .     S
C109  C110   1.38202       .     S
C110  H93    1.08120       .     S
C110  C106   1.40644       .     D
C110  C109   1.38202       .     S
C111  H91    1.07653       .     D
C111  C101   1.38834       .     S
C111  C107   1.40776       .     S
C112  C100   1.41647       .     D
C112  C101   1.40932       .     S
C112  C114   1.49290       .     D
C113  C99    1.49488       .     S
C113  C102   1.42529       .     A
C113  C106   1.42263       .     A
C114  H94    1.08568       .     A
C114  C112   1.49290       .     D
C114  O122   1.22074       .     S
C115  H95    1.08402       .     S
C115  C100   1.48722       .     S
C115  O123   1.22109       .     A
C116  H96    1.08516       .     A
C116  C102   1.48209       .     A
C116  O124   1.22099   1_655     A
C117  H97    1.08358   1_655     A
C117  C103   1.49345       .     S
C117  O125   1.22155       .     A
O118  Zn64   3.72988       .     A
O118  C98    1.27407       .     A
O119  Zn66   2.64464       .     S
O119  C99    1.29140       .     A
O120  Zn65   1.93293       .     D
O120  C98    1.28387       .     A
O121  Zn67   2.08374       .     A
O121  C99    1.28415       .     S
O122  C114   1.22074       .     S
O123  C115   1.22109       .     A
O124  C116   1.22099   1_455     S
O125  C117   1.22155       .     A
H126  C145   1.07997       .     S
H127  C147   1.07653       .     S
H128  C140   1.07425   1_556     S
H129  C146   1.08120       .     D
H130  C150   1.08568       .     S
H131  C151   1.08402       .     D
H132  C152   1.08516       .     S
H133  C153   1.08358       .     S
C134  C137   1.46309       .     D
C134  O154   1.27406       .     S
C134  O156   1.28387       .     D
C135  C149   1.49488       .     S
C135  O155   1.29140       .     A
C135  O157   1.28415       .     A
C136  C144   1.42262       .     A
C136  C148   1.41647       .     D
C136  C151   1.48722       .     S
C137  C134   1.46309       .     S
C137  C147   1.38834       .     S
C137  C148   1.40932       .     A
C138  C139   1.41019       .     A
C138  C149   1.42530       .     A
C138  C152   1.48209       .     A
C139  C138   1.41019       .     A
C139  C140   1.39871       .     S
C139  C153   1.49345       .     A
C140  H128   1.07425   1_554     A
C140  C139   1.39871       .     A
C140  C141   1.41220   1_554     S
C141  C140   1.41220   1_556     A
C141  C142   1.41890   1_556     D
C141  C143   1.43240       .     A
C142  C141   1.41890   1_554     A
C142  C146   1.40644       .     S
C142  C149   1.42263       .     S
C143  C141   1.43240       .     A
C143  C144   1.42536       .     S
C143  C147   1.40776       .     A
C144  C136   1.42262       .     S
C144  C143   1.42536       .     S
C144  C145   1.40237       .     S
C145  H126   1.07997       .     D
C145  C144   1.40237       .     S
C145  C146   1.38202   1_556     D
C146  H129   1.08120       .     S
C146  C142   1.40644       .     S
C146  C145   1.38202   1_554     D
C147  H127   1.07653       .     S
C147  C137   1.38834       .     D
C147  C143   1.40776       .     S
C148  C136   1.41647       .     A
C148  C137   1.40932       .     A
C148  C150   1.49290       .     A
C149  C135   1.49488       .     D
C149  C138   1.42530       .     S
C149  C142   1.42263       .     S
C150  H130   1.08568       .     S
C150  C148   1.49290       .     A
C150  O158   1.22073       .     A
C151  H131   1.08402       .     A
C151  C136   1.48722       .     A
C151  O159   1.22109       .     A
C152  H132   1.08516       .     S
C152  C138   1.48209       .     A
C152  O160   1.22099       .     A
C153  H133   1.08358       .     A
C153  C139   1.49345       .     S
C153  O161   1.22155       .     A
O154  Zn66   1.99500       .     D
O154  C134   1.27406       .     A
O155  Zn64   2.80617       .     A
O155  C135   1.29140       .     S
O156  Zn67   1.94448       .     S
O156  C134   1.28387       .     A
O157  Zn64   2.38421       .     S
O157  C135   1.28415       .     A
O158  C150   1.22073       .     S
O159  C151   1.22109       .     S
O160  C152   1.22099       .     S
O161  C153   1.22155       .     D
H162  C181   1.07997       .     S
H163  C183   1.07653       .     D
H164  C176   1.07425       .     S
H165  C182   1.08120       .     S
H166  C186   1.08568       .     D
H167  C187   1.08402       .     S
H168  C188   1.08516       .     D
H169  C189   1.08358       .     S
C170  C173   1.46309       .     A
C170  O190   1.27406       .     A
C170  O192   1.28387       .     A
C171  C185   1.49488       .     D
C171  O191   1.29140       .     S
C171  O193   1.28415       .     S
C172  C180   1.42262       .     S
C172  C184   1.41647       .     A
C172  C187   1.48721       .     A
C173  C170   1.46309       .     A
C173  C183   1.38834       .     A
C173  C184   1.40932       .     A
C174  C175   1.41019       .     S
C174  C185   1.42529       .     A
C174  C188   1.48209       .     A
C175  C174   1.41019       .     A
C175  C176   1.39871       .     S
C175  C189   1.49345       .     A
C176  H164   1.07425       .     D
C176  C175   1.39871       .     A
C176  C177   1.41221       .     A
C177  C176   1.41221       .     S
C177  C178   1.41889       .     S
C177  C179   1.43240       .     A
C178  C177   1.41889       .     S
C178  C182   1.40644       .     A
C178  C185   1.42263       .     S
C179  C177   1.43240       .     S
C179  C180   1.42536       .     S
C179  C183   1.40776       .     D
C180  C172   1.42262       .     S
C180  C179   1.42536       .     D
C180  C181   1.40238       .     S
C181  H162   1.07997       .     S
C181  C180   1.40238       .     S
C181  C182   1.38202       .     S
C182  H165   1.08120       .     S
C182  C178   1.40644       .     S
C182  C181   1.38202       .     S
C183  H163   1.07653       .     S
C183  C173   1.38834       .     S
C183  C179   1.40776       .     S
C184  C172   1.41647       .     S
C184  C173   1.40932       .     S
C184  C186   1.49290       .     S
C185  C171   1.49488       .     S
C185  C174   1.42529       .     S
C185  C178   1.42263       .     S
C186  H166   1.08568       .     S
C186  C184   1.49290       .     S
C186  O194   1.22073   1_655     S
C187  H167   1.08402       .     S
C187  C172   1.48721       .     S
C187  O195   1.22109   1_655     S
C188  H168   1.08516       .     S
C188  C174   1.48209       .     S
C188  O196   1.22099       .     S
C189  H169   1.08358       .     S
C189  C175   1.49345       .     S
C189  O197   1.22155       .     S
O190  Zn65   3.82483   1_565     S
O190  C170   1.27406       .     S
O191  Zn67   2.79276       .     S
O191  C171   1.29140       .     S
O192  Zn65   3.36538   1_565     S
O192  C170   1.28387       .     S
O193  Zn66   2.05832       .     S
O193  C171   1.28415       .     S
O194  C186   1.22073   1_455     S
O195  C187   1.22109   1_455     S
O196  C188   1.22099       .     S
O197  C189   1.22155       .     S
