data_I
_chemical_name_common  '/home/sibivarshan_m7/MOFDiff/MOFDiff/results/nh3_optimized_5.0/cif/sample_8'
_cell_length_a  7.52449
_cell_length_b 12.23450
_cell_length_c 12.77848
_cell_angle_alpha 93.60450
_cell_angle_beta  89.43957
_cell_angle_gamma 94.64712
_space_group_name_H-M_alt      'P 1'


loop_
_space_group_symop_operation_xyz
  'x, y, z' 

loop_
_atom_site_label
_atom_site_fract_x
_atom_site_fract_y
_atom_site_fract_z
_atom_site_type_symbol
Zn0   0.059448242 0.00057959557 0.25761592    Zn
Zn1   0.74267966 0.9610758 0.1149174    Zn
H2     0.94877 0.044620633 0.42231274     H
H3    0.6327282 0.88113517 0.81798255     H
H4    0.16108477 0.071085095 0.5653688     H
H5    0.8448738 0.9133286 0.95876926     H
H6    0.23854959 0.05577147 0.7494142     H
C7    0.17850804 0.013635755 0.95653576     C
C8    0.7333947 0.96772754 0.5129719     C
C9    0.058538675 0.9870451 0.8648633     C
C10   0.76352763 0.9190389 0.79998046     C
C11   0.8861773 0.93753296 0.8815338     C
C12   0.10667205 0.016662598 0.7633018     C
C13   0.98218614 0.99990135 0.6804958     C
C14   0.8081539 0.9505017 0.6982374     C
C15   0.68390596 0.93352437 0.61416036     C
C16   0.90660477 0.01759684 0.49843052     C
C17   0.029003501 0.032987595 0.58044916     C
C18   0.6147009 0.94669306 0.41908297     C
C19   0.5104818 0.8764351 0.6308011     C
N20   0.37242666 0.8304974 0.6444678     N
O21   0.35103643 0.024334311 0.9441642     O
O22   0.099895716 0.027335048 0.046300173     O
O23   0.44206148 0.93852067 0.43071553     O
O24   0.69336003 0.93553805 0.32872686     O
H25   0.044858098 0.7039449 0.3711046     H
H26   0.7564027 0.2629793 0.0024581123     H
H27   0.7914999 0.45642897 0.9771575     H
H28   0.018488765 0.5094621 0.3937849     H
C29   0.8558188 0.16587731 0.16808626     C
C30   0.93715614 0.80211383 0.20827588     C
C31   0.9544054 0.6873451 0.21053474     C
C32   0.84259915 0.28065705 0.16371769     C
C33   0.81911695 0.43032146 0.0540933     C
C34   0.986608 0.5368317 0.31785077     C
C35   0.79824513 0.3193818 0.068112105     C
C36   0.0033353567 0.6479924 0.30506966     C
C37   0.90401727 0.35123566 0.24821794     C
C38   0.89756274 0.617086 0.124633364     C
C39   0.9237141 0.46381462 0.235115     C
C40   0.87957263 0.5040473 0.13707554     C
N41   0.8575216 0.6613863 0.02653092     N
N42   0.9496982 0.30764544 0.3455373     N
O43   0.009036779 0.13535187 0.19537827     O
O44   0.78315365 0.83266836 0.18169682     O
O45   0.7196004 0.099627376 0.13879053     O
O46   0.07258999 0.8683928 0.23828456     O
O47   0.701261 0.6394828 0.98409903     O
O48   0.9707815 0.7324504 0.9849854     O
O49   0.11396384 0.3187316 0.37793744     O
O50   0.8326819 0.24498005 0.39436033     O
H51   0.354373 0.8724825 0.15273947     H
H52   0.4351891 0.094747186 0.22226396     H
N53   0.32675076 0.9519344 0.17344755     N
N54   0.46280438 0.01527667 0.20166376     N
loop_
_geom_bond_atom_site_label_1
_geom_bond_atom_site_label_2
_geom_bond_distance
_geom_bond_site_symmetry_2
_ccdc_geom_bond_type
Zn0   Zn1    3.00456   1_445     S
Zn0   O21    4.56213   1_554     S
Zn0   O24    2.95528   1_445     D
Zn0   O43    1.94095       .     S
Zn0   O46    1.63140   1_545     S
Zn0   N53    2.37225   1_545     T
Zn1   Zn0    3.00456   1_665     S
Zn1   O22    2.88805   1_665     A
Zn1   O23    4.61928       .     A
Zn1   O44    1.88153       .     A
Zn1   O45    1.72576   1_565     S
Zn1   N54    2.48828   1_565     A
H2    C16    1.08326       .     S
H3    C10    1.08243       .     A
H4    C17    1.08379       .     A
H5    C11    1.08360       .     A
H6    C12    1.08416       .     A
C7    C9     1.48935   1_545     S
C7    O21    1.30325       .     A
C7    O22    1.29319   1_556     S
C8    C15    1.42094       .     A
C8    C16    1.40929   1_565     A
C8    C18    1.49940       .     S
C9    C7     1.48935   1_565     S
C9    C11    1.40637   1_455     D
C9    C12    1.40550   1_565     S
C10   H3     1.08243       .     D
C10   C11    1.39437       .     S
C10   C14    1.40879       .     S
C11   H5     1.08360       .     T
C11   C9     1.40637   1_655     S
C11   C10    1.39437       .     A
C12   H6     1.08416       .     A
C12   C9     1.40550   1_545     A
C12   C13    1.41424   1_445     S
C13   C12    1.41424   1_665     A
C13   C14    1.41939       .     S
C13   C17    1.39840   1_665     A
C14   C10    1.40879       .     A
C14   C13    1.41939       .     A
C14   C15    1.42534       .     A
C15   C8     1.42094       .     S
C15   C14    1.42534       .     A
C15   C19    1.44964       .     S
C16   H2     1.08326       .     A
C16   C8     1.40929   1_545     A
C16   C17    1.39574   1_655     S
C17   H4     1.08379       .     S
C17   C13    1.39840   1_445     D
C17   C16    1.39574   1_455     S
C18   C8     1.49940       .     D
C18   O23    1.30254       .     S
C18   O24    1.29691       .     S
C19   C15    1.44964       .     D
C19   N20    1.15744       .     S
N20   C19    1.15744       .     A
O21   Zn0    4.56213   1_556     A
O21   C7     1.30325       .     D
O22   Zn1    2.88805   1_445     S
O22   C7     1.29319   1_554     A
O23   Zn1    4.61928       .     A
O23   C18    1.30254       .     S
O24   Zn0    2.95528   1_665     A
O24   C18    1.29691       .     A
H25   C36    1.08450       .     A
H26   C35    1.08459       .     S
H27   C33    1.07980   1_556     A
H28   C34    1.08149   1_455     A
C29   C32    1.42042       .     S
C29   O43    1.29779   1_655     A
C29   O45    1.29708       .     A
C30   C31    1.42267       .     S
C30   O44    1.30067       .     D
C30   O46    1.29528   1_655     D
C31   C30    1.42267       .     S
C31   C36    1.39184   1_655     D
C31   C38    1.39918       .     S
C32   C29    1.42042       .     D
C32   C35    1.39096       .     S
C32   C37    1.39750       .     S
C33   H27    1.07980   1_554     D
C33   C35    1.37640       .     S
C33   C40    1.40273       .     A
C34   H28    1.08149   1_655     A
C34   C36    1.37546   1_655     D
C34   C39    1.40081       .     S
C35   H26    1.08459       .     A
C35   C32    1.39096       .     A
C35   C33    1.37640       .     S
C36   H25    1.08450       .     A
C36   C31    1.39184   1_455     A
C36   C34    1.37546   1_455     A
C37   C32    1.39750       .     S
C37   C39    1.39374       .     A
C37   N42    1.43894       .     A
C38   C31    1.39918       .     S
C38   C40    1.39754       .     A
C38   N41    1.44060       .     A
C39   C34    1.40081       .     S
C39   C37    1.39374       .     D
C39   C40    1.42628       .     D
C40   C33    1.40273       .     S
C40   C38    1.39754       .     D
C40   C39    1.42628       .     S
N41   C38    1.44060       .     S
N41   O47    1.30055   1_554     D
N41   O48    1.30122   1_554     S
N42   C37    1.43894       .     S
N42   O49    1.30128   1_655     D
N42   O50    1.30089       .     S
O43   Zn0    1.94095       .     S
O43   C29    1.29779   1_455     S
O44   Zn1    1.88153       .     S
O44   C30    1.30067       .     S
O45   Zn1    1.72576   1_545     S
O45   C29    1.29708       .     S
O46   Zn0    1.63140   1_565     S
O46   C30    1.29528   1_455     S
O47   N41    1.30055   1_556     S
O48   N41    1.30122   1_556     S
O49   N42    1.30128   1_455     S
O50   N42    1.30089       .     S
H51   N53    1.02831       .     S
H52   N54    1.02825       .     S
N53   Zn0    2.37225   1_565     S
N53   H51    1.02831       .     S
N53   N54    1.27363   1_565     S
N54   Zn1    2.48828   1_545     S
N54   H52    1.02825       .     S
N54   N53    1.27363   1_545     S
