# generated using pymatgen
data_ZnH7C21Br2N4(OF)4
_symmetry_space_group_name_H-M   'P 1'
_cell_length_a   15.28054000
_cell_length_b   17.53309000
_cell_length_c   18.07178000
_cell_angle_alpha   89.86906000
_cell_angle_beta   88.69342000
_cell_angle_gamma   87.33781000
_symmetry_Int_Tables_number   1
_chemical_formula_structural   ZnH7C21Br2N4(OF)4
_chemical_formula_sum   'Zn2 H14 C42 Br4 N8 O8 F8'
_cell_volume   4835.21585845
_cell_formula_units_Z   2
loop_
 _symmetry_equiv_pos_site_id
 _symmetry_equiv_pos_as_xyz
  1  'x, y, z'
loop_
 _atom_site_type_symbol
 _atom_site_label
 _atom_site_symmetry_multiplicity
 _atom_site_fract_x
 _atom_site_fract_y
 _atom_site_fract_z
 _atom_site_occupancy
  _atom_site_charge
  Zn  Zn0  1  0.91125680  0.43637714  0.03134930  1  1.215831
  Zn  Zn1  1  0.75423700  0.42747667  0.93566304  1  1.230734
  H  H2  1  0.99239010  0.46679070  0.66934340  1  0.157866
  H  H3  1  0.70359410  0.42957450  0.20649531  1  0.171660
  H  H4  1  0.98580320  0.37417760  0.74680190  1  0.177476
  H  H5  1  0.66200430  0.33733964  0.68135130  1  0.066873
  H  H6  1  0.00070810  0.52913890  0.28867006  1  0.069509
  H  H7  1  0.70040270  0.37630063  0.55432030  1  0.095037
  H  H8  1  0.96389850  0.48447654  0.41414207  1  0.096358
  H  H9  1  0.64572746  0.45674900  0.31243260  1  0.162942
  H  H10  1  0.47302136  0.32618842  0.92423880  1  0.082449
  H  H11  1  0.18039767  0.48769206  0.02993214  1  0.092028
  H  H12  1  0.33347145  0.27405724  0.89175430  1  0.096866
  H  H13  1  0.31562483  0.53462630  0.06663907  1  0.100970
  H  H14  1  0.55894953  0.38328552  0.12340403  1  0.072079
  H  H15  1  0.09622259  0.43949023  0.83362716  1  0.049443
  C  C16  1  0.81985430  0.28735018  0.98674980  1  0.708349
  C  C17  1  0.84451413  0.57781315  0.98186870  1  0.716875
  C  C18  1  0.77051276  0.78327876  0.96150730  1  0.248730
  C  C19  1  0.84303070  0.08502376  0.05053437  1  0.218893
  C  C20  1  0.76934636  0.70425780  0.96195470  1  0.341973
  C  C21  1  0.83567250  0.16417694  0.05197191  1  0.362666
  C  C22  1  0.84543560  0.66061200  0.97981320  1  -0.362818
  C  C23  1  0.82526594  0.20485961  0.98553467  1  -0.343960
  C  C24  1  0.92307370  0.69694483  0.99567780  1  0.471257
  C  C25  1  0.82339215  0.16621006  0.91778410  1  0.354191
  C  C26  1  0.92380244  0.77598670  0.99513507  1  0.442992
  C  C27  1  0.84734800  0.89894120  0.97998506  1  0.187157
  C  C28  1  0.83087700  0.08714271  0.91652440  1  0.206437
  C  C29  1  0.84748170  0.81861440  0.97848760  1  -0.172480
  C  C30  1  0.84051960  0.04705250  0.98283994  1  -0.039294
  C  C31  1  0.84530300  0.96664270  0.98143196  1  0.072617
  C  C32  1  0.93654430  0.50773984  0.30031660  1  0.107076
  C  C33  1  0.72640100  0.35801077  0.66924600  1  0.078514
  C  C34  1  0.91522490  0.48220798  0.37172014  1  -0.092539
  C  C35  1  0.74861974  0.38025630  0.59693340  1  -0.075497
  C  C36  1  0.83128357  0.45493633  0.38740674  1  0.102209
  C  C37  1  0.83225630  0.40795273  0.58098054  1  0.097024
  C  C38  1  0.77074957  0.45424950  0.33012760  1  0.048148
  C  C39  1  0.89150600  0.41244215  0.63886320  1  0.047132
  C  C40  1  0.79649913  0.47771883  0.25754476  1  0.177418
  C  C41  1  0.86758430  0.38585090  0.71082920  1  0.176979
  C  C42  1  0.64433223  0.40484276  0.95788170  1  -0.043783
  C  C43  1  0.01354547  0.43243640  0.00228751  1  -0.012701
  C  C44  1  0.57301540  0.41084770  0.00574577  1  0.122953
  C  C45  1  0.48336130  0.42758150  0.98959840  1  -0.073646
  C  C46  1  0.16659553  0.38597614  0.96557480  1  -0.032433
  C  C47  1  0.30012017  0.31983086  0.92304500  1  -0.082400
  C  C48  1  0.34945694  0.49021970  0.03402019  1  -0.070167
  C  C49  1  0.20905651  0.32528270  0.92629874  1  0.121268
  C  C50  1  0.43952492  0.48841596  0.02754521  1  0.133431
  C  C51  1  0.21365073  0.43864277  0.00337970  1  0.011869
  C  C52  1  0.07787506  0.40946952  0.95065500  1  0.023801
  C  C53  1  0.43795747  0.37283300  0.95279650  1  -0.021544
  C  C54  1  0.30345902  0.43424803  0.99942640  1  0.018379
  C  C55  1  0.34745052  0.37545680  0.95772470  1  0.041831
  C  C56  1  0.60009850  0.39585254  0.07595921  1  0.001691
  C  C57  1  0.05588822  0.44033200  0.88338375  1  0.081904
  Br  Br58  1  0.14500932  0.25262463  0.87271136  1  -0.189420
  Br  Br59  1  0.63699860  0.37002158  0.85833550  1  -0.265300
  Br  Br60  1  0.03133346  0.43418690  0.10694492  1  -0.249311
  Br  Br61  1  0.50042630  0.56912660  0.07257032  1  -0.148739
  N  N62  1  0.87768680  0.50522690  0.24513434  1  -0.112514
  N  N63  1  0.78529686  0.36127460  0.72437240  1  -0.103409
  N  N64  1  0.80381130  0.42935910  0.45949304  1  -0.057083
  N  N65  1  0.85950184  0.43332696  0.50879340  1  -0.057134
  N  N66  1  0.97868990  0.47739238  0.89248455  1  -0.082723
  N  N67  1  0.71565220  0.39748827  0.99982890  1  -0.348430
  N  N68  1  0.94974270  0.47057536  0.96542330  1  -0.259875
  N  N69  1  0.68670493  0.39067128  0.07276774  1  -0.037719
  O  O70  1  0.76563120  0.32392300  0.94454090  1  -0.470536
  O  O71  1  0.89769710  0.54100780  0.02470815  1  -0.574817
  O  O72  1  0.87087880  0.32199264  0.02949369  1  -0.575233
  O  O73  1  0.79244950  0.54293810  0.93975544  1  -0.483900
  O  O74  1  0.97096150  0.44410533  0.62347007  1  -0.225122
  O  O75  1  0.74202156  0.47286886  0.19823632  1  -0.266980
  O  O76  1  0.92577430  0.38272172  0.76787030  1  -0.274346
  O  O77  1  0.68719020  0.43198055  0.34735373  1  -0.222850
  F  F78  1  0.82906630  0.04966974  0.85088485  1  -0.346978
  F  F79  1  0.69650966  0.82541090  0.94535540  1  -0.356150
  F  F80  1  0.85192466  0.04543734  0.11484933  1  -0.346016
  F  F81  1  0.69348794  0.67089460  0.94679004  1  -0.388980
  F  F82  1  0.83704287  0.20097518  0.11798561  1  -0.382474
  F  F83  1  0.99854547  0.65616196  0.01009786  1  -0.507854
  F  F84  1  0.81778920  0.20492208  0.85292935  1  -0.391536
  F  F85  1  0.99862564  0.81097543  0.01089156  1  -0.513199
