data_I
_chemical_name_common  'nh3_target_5.00/cif/sample_4'
_cell_length_a  9.12319
_cell_length_b  9.84936
_cell_length_c 22.93349
_cell_angle_alpha 90.05832
_cell_angle_beta  87.76293
_cell_angle_gamma 89.40878
_space_group_name_H-M_alt      'P 1'


loop_
_space_group_symop_operation_xyz
  'x, y, z' 

loop_
_atom_site_label
_atom_site_fract_x
_atom_site_fract_y
_atom_site_fract_z
_atom_site_type_symbol
C0    0.27143776 0.17562518 0.025104249     C
C1    0.83174574 0.17298698 0.0383583     C
C2    0.11687211 0.17469802 0.029759998     C
C3    0.9863113 0.17391413 0.033702526     C
O4    0.34114063 0.06166604 0.021434134     O
O5    0.7620429 0.28694612 0.042028386     O
O6    0.7659172 0.058217965 0.03872919     O
O7    0.3372663 0.2903942 0.02473333     O
H8    0.48013803 0.5109688 0.59176123     H
H9    0.47070482 0.8326217 0.4800552     H
C10   0.6847111 0.1836359 0.9266221     C
C11   0.41031113 0.16345908 0.13507628     C
C12   0.44359374 0.056329407 0.41413337     C
C13   0.51805395 0.2875521 0.6569354     C
C14   0.4881707 0.2942967 0.41238457     C
C15   0.5817413 0.05251768 0.6510679     C
C16   0.48305896 0.29859343 0.47396162     C
C17   0.5354663 0.046818506 0.5931063     C
C18   0.48779547 0.17374854 0.504048     C
C19   0.5089683 0.17107774 0.56454676     C
C20   0.47243616 0.051367108 0.4736103     C
C21   0.5046669 0.2929301 0.59636384     C
C22   0.4785658 0.4215178 0.50641114     C
C23   0.5195853 0.9233458 0.5620862     C
C24   0.4863839 0.41677916 0.567296     C
C25   0.485269 0.92737144 0.50306046     C
C26   0.52975243 0.07751255 0.7830264     C
C27   0.3514803 0.26406595 0.2936419     C
C28   0.5679197 0.07477886 0.84194565     C
C29   0.34754533 0.26760215 0.23232004     C
C30   0.65759534 0.17756605 0.8638586     C
C31   0.4265622 0.16933534 0.19860278     C
C32   0.7091718 0.28071013 0.8264058     C
C33   0.509744 0.069976546 0.22664346     C
C34   0.6949737 0.26806745 0.76613986     C
C35    0.53606 0.08306352 0.28603944     C
C36   0.5980451 0.17130059 0.74415684     C
C37   0.45066565 0.17490388 0.32079315     C
Br38  0.48865658 0.93563026 0.89320374    Br
Br39  0.2256989 0.4011802 0.19513938    Br
Br40  0.7638046 0.45388272 0.8573657    Br
Br41  0.5552492 0.89942104 0.18874046    Br
Br42  0.81439793 0.38003996 0.71463615    Br
Br43  0.693952 0.97875214 0.31812972    Br
N44   0.4613707 0.17521863 0.3836452     N
N45   0.5656959 0.1704429 0.68282366     N
N46   0.45431614 0.5507658 0.47937608     N
N47   0.5258392 0.79361343 0.5903839     N
N48   0.41818088 0.9887852 0.7629998     N
N49   0.2515783 0.34708244 0.3284948     N
O50   0.8178427 0.18788822 0.94508666     O
O51   0.27900434 0.15921628 0.1164834     O
O52   0.52464336 0.1658266 0.09924956     O
O53   0.5722037 0.1812779 0.96232057     O
O54   0.4000256  0.94301 0.3868622     O
O55   0.4855774 0.39878553 0.68954164     O
O56   0.5236348 0.4064229 0.38148645     O
O57   0.645887 0.9431115 0.6749777     O
O58   0.34210753 0.5681339 0.44675663     O
O59   0.5251936 0.6567013 0.49642414     O
O60   0.4428155 0.77091277 0.63671046     O
O61   0.5905758 0.6913667 0.5638008     O
O62   0.30866995 0.03813711 0.7348171     O
O63   0.4303476 0.8579528 0.7693551     O
O64   0.17076485 0.2926285 0.37003046     O
O65   0.24776141 0.47813886 0.32151213     O
Zn66  0.38131756 0.17231432 0.032682523    Zn
Zn67  0.71605664 0.18065923 0.027721291    Zn
H68   0.4251286 0.72873086 0.109913126     H
H69   0.3285687 0.55513746 0.16464877     H
H70   0.42569163 0.4320962 0.12143521     H
H71   0.27479154 0.52685404 0.09125413     H
H72   0.75899106 0.7553506 0.9746899     H
H73   0.66333324 0.7177583 0.87744653     H
H74   0.58835584 0.8631365 0.9146263     H
H75   0.48778906 0.7033895 0.912706     H
C76   0.37000018 0.53148603 0.119568855     C
C77   0.5961763 0.75098985 0.916129     C
N78   0.5268682 0.622198 0.043412186     N
N79   0.5732345 0.7304211 0.017657999     N
N80   0.46874237 0.6367031 0.099708535     N
N81   0.6616519 0.70786697 0.9692703     N
loop_
_geom_bond_atom_site_label_1
_geom_bond_atom_site_label_2
_geom_bond_distance
_geom_bond_site_symmetry_2
_ccdc_geom_bond_type
C0    C2     1.41013       .     D
C0    O4     1.28538       .     S
C0    O7     1.28538       .     S
C1    C3     1.41013       .     T
C1    O5     1.28538       .     S
C1    O6     1.28538       .     D
C2    C0     1.41013       .     S
C2    C3     1.19114   1_455     D
C3    C1     1.41013       .     S
C3    C2     1.19114   1_655     S
O4    C0     1.28538       .     T
O4    Zn66   1.18476       .     S
O5    C1     1.28538       .     D
O5    Zn67   1.18266       .     S
O6    C1     1.28538       .     D
O6    Zn67   1.31274       .     S
O7    C0     1.28538       .     S
O7    Zn66   1.24252       .     S
H8    C24    1.08353       .     S
H9    C25    1.08349       .     A
C10   C30    1.47124       .     A
C10   O50    1.30286       .     A
C10   O53    1.28813       .     A
C11   C31    1.47130       .     S
C11   O51    1.28821       .     A
C11   O52    1.30279       .     A
C12   C20    1.40002       .     S
C12   N44    1.37227       .     D
C12   O54    1.34982   1_545     D
C13   C21    1.40023       .     S
C13   N45    1.37224       .     D
C13   O55    1.34966       .     S
C14   C16    1.41170       .     S
C14   N44    1.37356       .     D
C14   O56    1.34815       .     S
C15   C17    1.41155       .     S
C15   N45    1.37379       .     D
C15   O57    1.34817   1_545     A
C16   C14    1.41170       .     A
C16   C18    1.41171       .     A
C16   C22    1.41990       .     A
C17   C15    1.41155       .     S
C17   C19    1.41180       .     D
C17   C23    1.41985   1_545     S
C18   C16    1.41171       .     A
C18   C19    1.40851       .     A
C18   C20    1.40330       .     A
C19   C17    1.41180       .     S
C19   C18    1.40851       .     A
C19   C21    1.40335       .     A
C20   C12    1.40002       .     A
C20   C18    1.40330       .     D
C20   C25    1.40224   1_545     S
C21   C13    1.40023       .     A
C21   C19    1.40335       .     D
C21   C24    1.40226       .     S
C22   C16    1.41990       .     S
C22   C24    1.40170       .     D
C22   N46    1.43541       .     S
C23   C17    1.41985   1_565     S
C23   C25    1.40176       .     D
C23   N47    1.43534       .     S
C24   H8     1.08353       .     D
C24   C21    1.40226       .     S
C24   C22    1.40170       .     A
C25   H9     1.08349       .     A
C25   C20    1.40224   1_565     D
C25   C23    1.40176       .     S
C26   C28    1.40868       .     A
C26   C36    1.41645       .     A
C26   N48    1.43694   1_545     A
C27   C29    1.40864       .     S
C27   C37    1.41650       .     A
C27   N49    1.43686       .     S
C28   C26    1.40868       .     S
C28   C30    1.41243       .     D
C28   Br38   1.93404   1_545     S
C29   C27    1.40864       .     D
C29   C31    1.41242       .     S
C29   Br39   1.93387       .     S
C30   C10    1.47124       .     S
C30   C28    1.41243       .     S
C30   C32    1.40403       .     A
C31   C11    1.47130       .     A
C31   C29    1.41242       .     A
C31   C33    1.40399       .     A
C32   C30    1.40403       .     S
C32   C34    1.39874       .     A
C32   Br40   1.92470       .     A
C33   C31    1.40399       .     S
C33   C35    1.39841       .     D
C33   Br41   1.92467   1_545     D
C34   C32    1.39874       .     S
C34   C36    1.41271       .     D
C34   Br42   1.93015       .     S
C35   C33    1.39841       .     S
C35   C37    1.41278       .     D
C35   Br43   1.93026   1_545     S
C36   C26    1.41645       .     S
C36   C34    1.41271       .     D
C36   N45    1.44848       .     A
C37   C27    1.41650       .     A
C37   C35    1.41278       .     A
C37   N44    1.44852       .     A
Br38  C28    1.93404   1_565     S
Br39  C29    1.93387       .     D
Br40  C32    1.92470       .     S
Br41  C33    1.92467   1_565     A
Br42  C34    1.93015       .     A
Br43  C35    1.93026   1_565     A
N44   C12    1.37227       .     S
N44   C14    1.37356       .     A
N44   C37    1.44852       .     A
N45   C13    1.37224       .     A
N45   C15    1.37379       .     D
N45   C36    1.44848       .     S
N46   C22    1.43541       .     A
N46   O58    1.30126       .     D
N46   O59    1.30096       .     S
N47   C23    1.43534       .     S
N47   O60    1.30139       .     D
N47   O61    1.30116       .     S
N48   C26    1.43694   1_565     S
N48   O62    1.30124   1_565     D
N48   O63    1.30107       .     S
N49   C27    1.43686       .     D
N49   O64    1.30114       .     S
N49   O65    1.30116       .     A
O50   C10    1.30286       .     A
O50   Zn67   2.07919   1_556     D
O51   C11    1.28821       .     S
O51   Zn66   2.10817       .     A
O52   C11    1.30279       .     A
O52   Zn67   2.35455       .     A
O53   C10    1.28813       .     S
O53   Zn66   2.32992   1_556     A
O54   C12    1.34982   1_565     S
O55   C13    1.34966       .     S
O56   C14    1.34815       .     D
O57   C15    1.34817   1_565     S
O58   N46    1.30126       .     S
O59   N46    1.30096       .     S
O60   N47    1.30139       .     S
O61   N47    1.30116       .     S
O62   N48    1.30124   1_545     S
O63   N48    1.30107       .     S
O64   N49    1.30114       .     S
O65   N49    1.30116       .     S
Zn66  O4     1.18476       .     D
Zn66  O7     1.24252       .     S
Zn66  O51    2.10817       .     S
Zn66  O53    2.32992   1_554     S
Zn66  Zn67   3.05352       .     S
Zn66  N79    4.68188   1_545     S
Zn67  O5     1.18266       .     S
Zn67  O6     1.31274       .     S
Zn67  O50    2.07919   1_554     S
Zn67  O52    2.35455       .     S
Zn67  Zn66   3.05352       .     S
Zn67  N78    4.67062       .     S
H68   N80    1.00972       .     S
H69   C76    1.11047       .     D
H70   C76    1.09991       .     S
H71   C76    1.10590       .     S
H72   N81    1.01974       .     S
H73   C77    1.10560       .     S
H74   C77    1.10680       .     S
H75   C77    1.10423       .     S
C76   H69    1.11047       .     S
C76   H70    1.09991       .     S
C76   H71    1.10590       .     S
C76   N80    1.44261       .     S
C77   H73    1.10560       .     S
C77   H74    1.10680       .     S
C77   H75    1.10423       .     S
C77   N81    1.44054       .     S
N78   Zn67   4.67062       .     S
N78   N79    1.28650       .     S
N78   N80    1.38315       .     S
N79   Zn66   4.68188   1_565     S
N79   N78    1.28650       .     S
N79   N81    1.36286   1_554     S
N80   H68    1.00972       .     S
N80   C76    1.44261       .     S
N80   N78    1.38315       .     S
N81   H72    1.01974       .     S
N81   C77    1.44054       .     S
N81   N79    1.36286   1_556     S
