data_I
_chemical_name_common  'nh3_target_5.00/cif/sample_1'
_cell_length_a  9.18513
_cell_length_b 10.07485
_cell_length_c 22.01202
_cell_angle_alpha 91.14606
_cell_angle_beta  91.22553
_cell_angle_gamma 89.37640
_space_group_name_H-M_alt      'P 1'


loop_
_space_group_symop_operation_xyz
  'x, y, z' 

loop_
_atom_site_label
_atom_site_fract_x
_atom_site_fract_y
_atom_site_fract_z
_atom_site_type_symbol
Zn0   0.36388147 0.42908764 0.79685575    Zn
Zn1   0.33054617 0.7113525 0.7470745    Zn
C2    0.6346518 0.5997469 0.77555764     C
C3    0.059163928 0.54393226 0.76878947     C
C4    0.7835974 0.58000237 0.77315587     C
C5    0.91023016 0.56364787 0.7711666     C
O6    0.5540492 0.49608076 0.77985394     O
O7    0.5867871 0.72075725 0.77383095     O
O8    0.10702431 0.42292356 0.7706167     O
O9    0.13977408 0.64768213 0.76459146     O
H10   0.53680044 0.25050887 0.8255177     H
H11   0.14706741 0.88960624 0.7177712     H
H12   0.65926915 0.08341953 0.8658593     H
H13   0.02460389 0.05668149 0.67743325     H
C14   0.51375437 0.9844488 0.79588854     C
C15   0.17013003 0.15566313 0.74740326     C
C16   0.4822297 0.8527869 0.7757201     C
C17   0.20165175 0.28732952 0.7675591     C
C18   0.24925296 0.9194466 0.7386524     C
C19   0.43462127 0.22066598 0.80464154     C
C20   0.27504858 0.053744547 0.7569131     C
C21   0.40882573 0.08636794 0.7863808     C
C22   0.6548605 0.013757579 0.82770026     C
C23   0.02902387 0.1263543 0.71559143     C
N24   0.332372 0.31736696 0.7956039     N
N25   0.3515059 0.82274747 0.7476828     N
N26   0.09850048 0.391288 0.7554877     N
N27   0.5853847 0.74883026 0.78778434     N
O28   0.072526254 0.42487583 0.6995038     O
O29   0.0036138336 0.4231306 0.7963757     O
O30   0.61134505 0.7152085 0.8437662     O
O31   0.6802951 0.71702135 0.74689597     O
O32   0.76812935 0.96121156 0.8112509     O
O33   0.9157499 0.1789145 0.73203707     O
H34   0.6727828 0.5467017 0.6696162     H
H35   0.039085593 0.6634153 0.8755038     H
H36   0.75811434 0.53380626 0.5131586     H
H37   0.9771392 0.7170187 0.03443726     H
H38   0.4380541 0.88675815 0.32749736     H
H39   0.25800112 0.23236293 0.21616964     H
C40   0.17284791 0.5899212 0.9549501     C
C41   0.5164353 0.5380835 0.52541363     C
C42   0.17644912 0.59158444 0.019168543     C
C43   0.38523734 0.5692189 0.4937707     C
C44   0.30560675 0.55122346 0.049968332     C
C45   0.39020014 0.5892573 0.68588114     C
C46   0.30016828 0.55051166 0.85777074     C
C47   0.26000988 0.6095353 0.52476484     C
C48   0.29233932 0.44111416 0.14526112     C
C49   0.4031942 0.67811257 0.39841107     C
C50   0.34875956 0.67218935 0.14375302     C
C51   0.34206843 0.44809866 0.40005028     C
C52   0.3622511 0.6783268 0.20758483     C
C53   0.33056003 0.44150186 0.33616713     C
C54   0.34037098 0.55980164 0.23990436     C
C55   0.35366836 0.5597575 0.30381435     C
C56   0.3051431 0.4409324 0.20843202     C
C57   0.42998353 0.5123625 0.01811849     C
C58   0.38993883 0.6783948 0.33525518     C
C59   0.39711344 0.79682875 0.2403907     C
C60   0.2965329 0.32282495 0.30335304     C
C61   0.4110815 0.7951486 0.30338272     C
C62   0.28415108 0.3241485 0.24030305     C
C63   0.6489939 0.49999365 0.62582386     C
C64   0.03555898 0.61900324 0.91987514     C
C65   0.65347797 0.5110084 0.49193272     C
C66   0.2636062 0.62014455 0.5878701     C
C67   0.049140476 0.6423438 0.05387419     C
C68   0.42797977 0.51392955 0.9549726     C
C69   0.39139774 0.5855215 0.6200334     C
C70   0.30059293 0.55335003 0.9236356     C
C71   0.5178515 0.54192704 0.5896075     C
N72   0.31424126 0.5552769 0.11474721     N
N73   0.37868187 0.5645676 0.42899296     N
Cl74  0.42420995 0.952145 0.20679569    Cl
Cl75  0.26963463 0.1675324 0.3369992    Cl
Cl76  0.09833061 0.6480695 0.4835081    Cl
Cl77  0.590409 0.46550107 0.058373276    Cl
Cl78  0.10538292 0.6718918 0.6266541    Cl
Cl79  0.5868753 0.46832258 0.9151167    Cl
O80   0.43911994 0.79046065 0.42942142     O
O81   0.37029412 0.78051394 0.11027721     O
O82   0.31708768 0.34060657 0.43362337     O
O83   0.72761047 0.40895343 0.60856146     O
O84   0.91698855 0.5884991 0.93903375     O
O85   0.6521124 0.46292883 0.440598     O
O86   0.022153353 0.60096675 0.10409374     O
O87   0.4005072 0.4774787 0.7139556     O
O88   0.29072258 0.6624001 0.82969797     O
O89    0.38404 0.7039624 0.7137015     O
O90   0.3071897 0.4359164 0.829952     O
O91   0.25848603 0.3283213 0.11418795     O
loop_
_geom_bond_atom_site_label_1
_geom_bond_atom_site_label_2
_geom_bond_distance
_geom_bond_site_symmetry_2
_ccdc_geom_bond_type
Zn0   Zn1    3.07781       .     S
Zn0   O6     1.92623       .     S
Zn0   O8     2.41807       .     D
Zn0   N24    1.16488       .     D
Zn0   O87    1.93550       .     S
Zn0   O90    0.90557       .     S
Zn1   Zn0    3.07781       .     T
Zn1   O7     2.41633       .     S
Zn1   O9     1.92194       .     S
Zn1   N25    1.14051       .     D
Zn1   O88    1.93727       .     D
Zn1   O89    0.89391       .     S
C2    C4     1.38231       .     S
C2    O6     1.29292       .     T
C2    O7     1.29250       .     S
C3    C5     1.38213   1_455     S
C3    O8     1.29256       .     D
C3    O9     1.29343       .     S
C4    C2     1.38231       .     D
C4    C5     1.17460       .     S
C5    C3     1.38213   1_655     D
C5    C4     1.17460       .     S
O6    Zn0    1.92623       .     S
O6    C2     1.29292       .     A
O7    Zn1    2.41633       .     A
O7    C2     1.29250       .     A
O8    Zn0    2.41807       .     A
O8    C3     1.29256       .     A
O9    Zn1    1.92194       .     A
O9    C3     1.29343       .     A
H10   C19    1.07915       .     A
H11   C18    1.07924       .     A
H12   C22    1.08412       .     A
H13   C23    1.08418       .     S
C14   C16    1.42119       .     A
C14   C21    1.41614   1_565     S
C14   C22    1.48949   1_565     S
C15   C17    1.42114       .     D
C15   C20    1.41608       .     D
C15   C23    1.48949       .     D
C16   C14    1.42119       .     S
C16   N25    1.37220       .     D
C16   N27    1.42967       .     S
C17   C15    1.42114       .     D
C17   N24    1.37224       .     S
C17   N26    1.42969       .     D
C18   H11    1.07924       .     S
C18   C20    1.42462   1_565     S
C18   N25    1.36036       .     A
C19   H10    1.07915       .     A
C19   C21    1.42462       .     A
C19   N24    1.36038       .     A
C20   C15    1.41608       .     A
C20   C18    1.42462   1_545     A
C20   C21    1.41591       .     A
C21   C14    1.41614   1_545     A
C21   C19    1.42462       .     A
C21   C20    1.41591       .     A
C22   H12    1.08412       .     S
C22   C14    1.48949   1_545     A
C22   O32    1.22075   1_545     S
C23   H13    1.08418       .     S
C23   C15    1.48949       .     D
C23   O33    1.22082   1_455     D
N24   Zn0    1.16488       .     D
N24   C17    1.37224       .     S
N24   C19    1.36038       .     D
N25   Zn1    1.14051       .     S
N25   C16    1.37220       .     S
N25   C18    1.36036       .     S
N26   C17    1.42969       .     D
N26   O28    1.30092       .     S
N26   O29    1.29942       .     S
N27   C16    1.42967       .     A
N27   O30    1.30095       .     A
N27   O31    1.29949       .     A
O28   N26    1.30092       .     A
O29   N26    1.29942       .     S
O30   N27    1.30095       .     A
O31   N27    1.29949       .     A
O32   C22    1.22075   1_565     S
O33   C23    1.22082   1_655     S
H34   C63    1.08327       .     D
H35   C64    1.08368       .     S
H36   C65    1.08447       .     D
H37   C67    1.08461   1_655     D
H38   C61    1.08385       .     S
H39   C62    1.08385       .     S
C40   C42    1.41303   1_556     S
C40   C64    1.49381       .     S
C40   C70    1.41516       .     S
C41   C43    1.41434       .     A
C41   C65    1.49204       .     A
C41   C71    1.41258       .     A
C42   C40    1.41303   1_554     A
C42   C44    1.41368       .     S
C42   C67    1.49066       .     A
C43   C41    1.41434       .     A
C43   C47    1.40206       .     A
C43   N73    1.42573       .     A
C44   C42    1.41368       .     S
C44   C57    1.40124       .     S
C44   N72    1.42622       .     A
C45   C69    1.44945       .     A
C45   O87    1.29695       .     A
C45   O89    1.29825       .     S
C46   C70    1.44945       .     S
C46   O88    1.29751       .     S
C46   O90    1.29763       .     D
C47   C43    1.40206       .     S
C47   C66    1.39076       .     D
C47   Cl76   1.76767       .     S
C48   C56    1.39301       .     D
C48   N72    1.36244       .     S
C48   O91    1.35032       .     S
C49   C58    1.39297       .     S
C49   N73    1.36212       .     A
C49   O80    1.35041       .     A
C50   C52    1.40806       .     A
C50   N72    1.36563       .     A
C50   O81    1.34769       .     A
C51   C53    1.40820       .     S
C51   N73    1.36579       .     A
C51   O82    1.34769       .     S
C52   C50    1.40806       .     D
C52   C54    1.42048       .     S
C52   C59    1.41891       .     S
C53   C51    1.40820       .     D
C53   C55    1.42041       .     S
C53   C60    1.41877       .     D
C54   C52    1.42048       .     S
C54   C55    1.40948       .     S
C54   C56    1.40873       .     S
C55   C53    1.42041       .     D
C55   C54    1.40948       .     S
C55   C58    1.40865       .     S
C56   C48    1.39301       .     A
C56   C54    1.40873       .     A
C56   C62    1.39908       .     A
C57   C44    1.40124       .     A
C57   C68    1.39010   1_554     S
C57   Cl77   1.76779       .     A
C58   C49    1.39297       .     A
C58   C55    1.40865       .     S
C58   C61    1.39906       .     S
C59   C52    1.41891       .     D
C59   C61    1.39019       .     S
C59   Cl74   1.76635       .     D
C60   C53    1.41877       .     D
C60   C62    1.39040       .     S
C60   Cl75   1.76634       .     S
C61   H38    1.08385       .     S
C61   C58    1.39906       .     S
C61   C59    1.39019       .     S
C62   H39    1.08385       .     A
C62   C56    1.39908       .     A
C62   C60    1.39040       .     A
C63   H34    1.08327       .     A
C63   C71    1.49208       .     S
C63   O83    1.22085       .     A
C64   H35    1.08368       .     A
C64   C40    1.49381       .     A
C64   O84    1.22087   1_455     A
C65   H36    1.08447       .     S
C65   C41    1.49204       .     S
C65   O85    1.22036       .     A
C66   C47    1.39076       .     A
C66   C69    1.40217       .     A
C66   Cl78   1.76960       .     S
C67   H37    1.08461   1_455     S
C67   C42    1.49066       .     S
C67   O86    1.22050       .     D
C68   C57    1.39010   1_556     S
C68   C70    1.40318       .     D
C68   Cl79   1.77057       .     S
C69   C45    1.44945       .     D
C69   C66    1.40217       .     S
C69   C71    1.41454       .     S
C70   C40    1.41516       .     S
C70   C46    1.44945       .     A
C70   C68    1.40318       .     A
C71   C41    1.41258       .     A
C71   C63    1.49208       .     A
C71   C69    1.41454       .     A
N72   C44    1.42622       .     S
N72   C48    1.36244       .     A
N72   C50    1.36563       .     S
N73   C43    1.42573       .     D
N73   C49    1.36212       .     S
N73   C51    1.36579       .     S
Cl74  C59    1.76635       .     D
Cl75  C60    1.76634       .     S
Cl76  C47    1.76767       .     S
Cl77  C57    1.76779       .     S
Cl78  C66    1.76960       .     S
Cl79  C68    1.77057       .     S
O80   C49    1.35041       .     S
O81   C50    1.34769       .     S
O82   C51    1.34769       .     S
O83   C63    1.22085       .     S
O84   C64    1.22087   1_655     S
O85   C65    1.22036       .     S
O86   C67    1.22050       .     S
O87   Zn0    1.93550       .     S
O87   C45    1.29695       .     S
O88   Zn1    1.93727       .     S
O88   C46    1.29751       .     S
O89   Zn1    0.89391       .     S
O89   C45    1.29825       .     S
O90   Zn0    0.90557       .     S
O90   C46    1.29763       .     S
O91   C48    1.35032       .     S
