# generated using pymatgen
data_ZnH11C24N2O8F
_symmetry_space_group_name_H-M   'P 1'
_cell_length_a   12.20798000
_cell_length_b   13.09691000
_cell_length_c   22.03719000
_cell_angle_alpha   91.18624000
_cell_angle_beta   94.93524000
_cell_angle_gamma   82.08156000
_symmetry_Int_Tables_number   1
_chemical_formula_structural   ZnH11C24N2O8F
_chemical_formula_sum   'Zn2 H22 C48 N4 O16 F2'
_cell_volume   3476.78233898
_cell_formula_units_Z   2
loop_
 _symmetry_equiv_pos_site_id
 _symmetry_equiv_pos_as_xyz
  1  'x, y, z'
loop_
 _atom_site_type_symbol
 _atom_site_label
 _atom_site_symmetry_multiplicity
 _atom_site_fract_x
 _atom_site_fract_y
 _atom_site_fract_z
 _atom_site_occupancy
  Zn  Zn0  1  0.15877844  0.94376450  0.98372054  1
  Zn  Zn1  1  0.35448876  0.06279102  0.97092490  1
  H  H2  1  0.26777630  0.19546913  0.59442776  1
  H  H3  1  0.24646150  0.81507360  0.35576210  1
  H  H4  1  0.33173436  0.25898102  0.50269080  1
  H  H5  1  0.18250331  0.75156176  0.44749913  1
  H  H6  1  0.61149704  0.23218830  0.23955730  1
  H  H7  1  0.90273260  0.77837450  0.71062500  1
  H  H8  1  0.30706160  0.17637949  0.13780600  1
  H  H9  1  0.20717622  0.83416325  0.81238390  1
  H  H10  1  0.24166851  0.11335711  0.23044571  1
  H  H11  1  0.27256933  0.89718560  0.71974410  1
  H  H12  1  0.75404860  0.80185380  0.94100280  1
  H  H13  1  0.75908935  0.20734978  0.01077688  1
  H  H14  1  0.01327825  0.81751776  0.99413160  1
  H  H15  1  0.49939024  0.19160890  0.95727900  1
  H  H16  1  0.04163206  0.17547430  0.00524604  1
  H  H17  1  0.47117028  0.83408620  0.94652474  1
  H  H18  1  0.48533967  0.48220366  0.97921680  1
  H  H19  1  0.02410569  0.52952970  0.96985847  1
  H  H20  1  0.29447865  0.24080900  0.01790094  1
  H  H21  1  0.21460960  0.77107670  0.93107545  1
  H  H22  1  0.38654214  0.65359030  0.95016930  1
  H  H23  1  0.12272107  0.35815480  0.99846697  1
  C  C24  1  0.01188555  0.75888443  0.82414640  1
  C  C25  1  0.50233050  0.25166476  0.12605280  1
  C  C26  1  0.16966476  0.85226440  0.55614270  1
  C  C27  1  0.34457645  0.15828098  0.39404908  1
  C  C28  1  0.19541442  0.01074674  0.60732090  1
  C  C29  1  0.31882340  0.99979590  0.34286895  1
  C  C30  1  0.23447901  0.04847594  0.55490850  1
  C  C31  1  0.27972892  0.96209320  0.39528325  1
  C  C32  1  0.23841365  0.98675597  0.50185670  1
  C  C33  1  0.27582422  0.02378670  0.44833317  1
  C  C34  1  0.20510449  0.88808470  0.50221020  1
  C  C35  1  0.30913330  0.12245794  0.44797970  1
  C  C36  1  0.26898915  0.14655034  0.55419310  1
  C  C37  1  0.24524869  0.86399233  0.39599675  1
  C  C38  1  0.30577347  0.18308556  0.50140970  1
  C  C39  1  0.20846434  0.82745710  0.44878012  1
  C  C40  1  0.49472138  0.16756210  0.28955215  1
  C  C41  1  0.01950835  0.84300070  0.66063010  1
  C  C42  1  0.53066510  0.20632827  0.23701605  1
  C  C43  1  0.98357270  0.80421450  0.71317380  1
  C  C44  1  0.46415190  0.20984271  0.18152939  1
  C  C45  1  0.05008584  0.80070000  0.76866040  1
  C  C46  1  0.36040490  0.17422680  0.17979385  1
  C  C47  1  0.15383285  0.83631590  0.77039600  1
  C  C48  1  0.32303098  0.13803673  0.23266259  1
  C  C49  1  0.19120683  0.87250600  0.71752730  1
  C  C50  1  0.38960347  0.13420375  0.28817480  1
  C  C51  1  0.12462631  0.87635900  0.66200750  1
  C  C52  1  0.71660644  0.87967676  0.95077660  1
  C  C53  1  0.79653220  0.12956980  0.00086641  1
  C  C54  1  0.60050553  0.90134543  0.94608350  1
  C  C55  1  0.91261210  0.10786142  0.00573039  1
  C  C56  1  0.61239250  0.07580832  0.97446233  1
  C  C57  1  0.90079516  0.93356540  0.97684646  1
  C  C58  1  0.73018180  0.05386071  0.98212660  1
  C  C59  1  0.78298550  0.95544520  0.96933395  1
  C  C60  1  0.50760484  0.27603167  0.00840068  1
  C  C61  1  0.00164194  0.73590976  0.94154936  1
  C  C62  1  0.40411810  0.35222754  0.00020003  1
  C  C63  1  0.10518877  0.65968780  0.94914380  1
  C  C64  1  0.30833906  0.62535130  0.95476335  1
  C  C65  1  0.20096537  0.38641390  0.99400140  1
  C  C66  1  0.20929644  0.69254950  0.94372430  1
  C  C67  1  0.29993537  0.31930465  0.00526726  1
  C  C68  1  0.10300846  0.55641633  0.96511600  1
  C  C69  1  0.40638238  0.45537826  0.98391260  1
  C  C70  1  0.20287018  0.48849568  0.97689754  1
  C  C71  1  0.30651173  0.52326710  0.97195100  1
  N  N72  1  0.16382262  0.91393370  0.60738060  1
  N  N73  1  0.35041510  0.09660908  0.34280920  1
  N  N74  1  0.96578920  0.01001014  0.99449044  1
  N  N75  1  0.54729986  0.99931395  0.95706670  1
  O  O76  1  0.57192380  0.31809056  0.13322417  1
  O  O77  1  0.94231400  0.69245213  0.81696570  1
  O  O78  1  0.04885291  0.79175280  0.87694760  1
  O  O79  1  0.46538490  0.21878992  0.07324225  1
  O  O80  1  0.14265399  0.75588780  0.55744314  1
  O  O81  1  0.37158376  0.25465490  0.39274675  1
  O  O82  1  0.18784383  0.07117182  0.65753240  1
  O  O83  1  0.32639390  0.93937080  0.29265743  1
  O  O84  1  0.94685730  0.83372750  0.96590930  1
  O  O85  1  0.56658196  0.17588630  0.98494583  1
  O  O86  1  0.96928406  0.18896525  0.02216816  1
  O  O87  1  0.54389900  0.82002510  0.93011140  1
  O  O88  1  0.49106318  0.17769742  0.00174499  1
  O  O89  1  0.01815028  0.83421610  0.94847655  1
  O  O90  1  0.60548160  0.31130332  0.02007961  1
  O  O91  1  0.90373206  0.70061004  0.93014187  1
  F  F92  1  0.56310546  0.16147120  0.34165376  1
  F  F93  1  0.95113230  0.84907144  0.60853610  1
