# generated using pymatgen
data_ZnH20C26N3O5
_symmetry_space_group_name_H-M   'P 1'
_cell_length_a   12.43903000
_cell_length_b   13.21150000
_cell_length_c   17.87029000
_cell_angle_alpha   89.51623000
_cell_angle_beta   89.23712000
_cell_angle_gamma   88.14001000
_symmetry_Int_Tables_number   1
_chemical_formula_structural   ZnH20C26N3O5
_chemical_formula_sum   'Zn2 H40 C52 N6 O10'
_cell_volume   2934.87030397
_cell_formula_units_Z   2
loop_
 _symmetry_equiv_pos_site_id
 _symmetry_equiv_pos_as_xyz
  1  'x, y, z'
loop_
 _atom_site_type_symbol
 _atom_site_label
 _atom_site_symmetry_multiplicity
 _atom_site_fract_x
 _atom_site_fract_y
 _atom_site_fract_z
 _atom_site_occupancy
  Zn  Zn0  1  0.47984672  0.17712450  0.65259400  1
  Zn  Zn1  1  0.70578860  0.24623346  0.68065710  1
  H  H2  1  0.24924283  0.30835840  0.69445086  1
  H  H3  1  0.77049040  0.38063544  0.65783390  1
  H  H4  1  0.10579073  0.39218482  0.69118440  1
  H  H5  1  0.93162740  0.47763053  0.68574480  1
  H  H6  1  0.88711990  0.04369785  0.62544270  1
  H  H7  1  0.41392860  0.03018445  0.67019254  1
  H  H8  1  0.05342308  0.94901437  0.62799650  1
  H  H9  1  0.24755701  0.94145805  0.64340395  1
  H  H10  1  0.73834230  0.29821600  0.28849750  1
  H  H11  1  0.41919068  0.30853120  0.05698631  1
  H  H12  1  0.74021010  0.17991460  0.03187097  1
  H  H13  1  0.47008730  0.09993953  0.28445876  1
  H  H14  1  0.75392246  0.27105576  0.42392766  1
  H  H15  1  0.40642685  0.32681364  0.92104805  1
  H  H16  1  0.72667940  0.19567193  0.89603020  1
  H  H17  1  0.48684630  0.07032279  0.41945460  1
  H  H18  1  0.55320200  0.15933049  0.70916593  1
  H  H19  1  0.32707757  0.34462497  0.72459220  1
  H  H20  1  0.77645730  0.40290280  0.69238096  1
  H  H21  1  0.74639535  0.53735250  0.70440406  1
  H  H22  1  0.90085113  0.43857425  0.58852940  1
  H  H23  1  0.86619866  0.57223060  0.59318364  1
  H  H24  1  0.93610070  0.51026710  0.66993770  1
  H  H25  1  0.80579686  0.74213684  0.69785106  1
  H  H26  1  0.86221720  0.85831565  0.72996170  1
  H  H27  1  0.02009499  0.83290090  0.64782400  1
  H  H28  1  0.00135136  0.72190630  0.70556750  1
  H  H29  1  0.96433276  0.72150510  0.60811310  1
  H  H30  1  0.31471804  0.60670470  0.69398290  1
  H  H31  1  0.26253784  0.50694860  0.75126570  1
  H  H32  1  0.36823153  0.58147085  0.78648883  1
  H  H33  1  0.41904473  0.91080177  0.70256600  1
  H  H34  1  0.44037170  0.00211763  0.77486490  1
  H  H35  1  0.39704412  0.04222381  0.68296750  1
  H  H36  1  0.60661834  0.21964905  0.55473500  1
  H  H37  1  0.71478680  0.30347640  0.56554720  1
  H  H38  1  0.68914670  0.21245918  0.63771450  1
  H  H39  1  0.91441930  0.13003242  0.61395390  1
  H  H40  1  0.94766530  0.00768983  0.65056420  1
  H  H41  1  0.90193130  0.02190161  0.55522555  1
  C  C42  1  0.24417860  0.02210583  0.65425010  1
  C  C43  1  0.84863190  0.34249073  0.66027546  1
  C  C44  1  0.93875610  0.39693350  0.67594430  1
  C  C45  1  0.03827184  0.34642634  0.67889506  1
  C  C46  1  0.04725066  0.24072136  0.66600645  1
  C  C47  1  0.95311290  0.18912439  0.65037113  1
  C  C48  1  0.14514942  0.18441972  0.66769050  1
  C  C49  1  0.14736605  0.07834784  0.65351146  1
  C  C50  1  0.05306248  0.02971994  0.63864510  1
  C  C51  1  0.95706440  0.08476440  0.63720447  1
  C  C52  1  0.24194099  0.22920892  0.68272220  1
  C  C53  1  0.33743220  0.07151260  0.66920580  1
  C  C54  1  0.59384096  0.21731518  0.19890910  1
  C  C55  1  0.58712480  0.22927340  0.13256020  1
  C  C56  1  0.55403570  0.26254170  0.81562823  1
  C  C57  1  0.62848080  0.15579060  0.51307680  1
  C  C58  1  0.68287295  0.24905916  0.31715587  1
  C  C59  1  0.48605546  0.28293797  0.02174240  1
  C  C60  1  0.66666667  0.21095459  0.00765022  1
  C  C61  1  0.53167210  0.13777925  0.31494612  1
  C  C62  1  0.69189435  0.23315232  0.39403424  1
  C  C63  1  0.47812780  0.29147092  0.94416296  1
  C  C64  1  0.65871580  0.21945764  0.93018220  1
  C  C65  1  0.54062414  0.12178469  0.39182886  1
  C  C66  1  0.62005580  0.17024647  0.43199492  1
  C  C67  1  0.56336810  0.25716472  0.89757836  1
  C  C68  1  0.60247654  0.20173274  0.27777797  1
  C  C69  1  0.57993000  0.24158815  0.05332583  1
  C  C70  1  0.54052510  0.61801296  0.66820430  1
  C  C71  1  0.59563140  0.81397265  0.66582470  1
  C  C72  1  0.57205635  0.33669177  0.63560605  1
  C  C73  1  0.77701400  0.03448462  0.63930905  1
  C  C74  1  0.59394260  0.44044274  0.63850105  1
  C  C75  1  0.73921720  0.93545324  0.64155870  1
  C  C76  1  0.51779200  0.50975925  0.67015320  1
  C  C77  1  0.63273370  0.91778356  0.66556793  1
  C  C78  1  0.42113346  0.47497055  0.70186750  1
  C  C79  1  0.56499666  0.99910710  0.69021994  1
  C  C80  1  0.40122014  0.37168393  0.70023644  1
  C  C81  1  0.60494110  0.09652531  0.69050500  1
  C  C82  1  0.65011310  0.26422676  0.59629464  1
  C  C83  1  0.89127570  0.05007851  0.61327153  1
  C  C84  1  0.76711190  0.47729135  0.66284010  1
  C  C85  1  0.87445110  0.50112780  0.62635330  1
  C  C86  1  0.85451260  0.80764270  0.68069040  1
  C  C87  1  0.96702060  0.76847440  0.65915280  1
  C  C88  1  0.33694160  0.54655740  0.73525710  1
  C  C89  1  0.44923880  0.98698807  0.71405020  1
  C  C90  1  0.44676164  0.19562753  0.66630040  1
  C  C91  1  0.74263980  0.21955621  0.66316570  1
  C  C92  1  0.47516240  0.30251354  0.66761270  1
  C  C93  1  0.70879160  0.11501992  0.66413580  1
  N  N94  1  0.33268613  0.17228300  0.68271540  1
  N  N95  1  0.85813440  0.24127991  0.64805424  1
  N  N96  1  0.57520604  0.66177994  0.60373900  1
  N  N97  1  0.60245820  0.75819373  0.60257185  1
  N  N98  1  0.56142220  0.77025560  0.73041314  1
  N  N99  1  0.53427510  0.67376720  0.73155210  1
  O  O100  1  0.64269520  0.27184215  0.77553880  1
  O  O101  1  0.53982040  0.14370397  0.55282134  1
  O  O102  1  0.72472900  0.15731966  0.54222610  1
  O  O103  1  0.45778660  0.25822642  0.78613400  1
  O  O104  1  0.34777066  0.17352995  0.65647150  1
  O  O105  1  0.73904350  0.26980305  0.72445980  1
  O  O106  1  0.51965360  0.12563731  0.67719110  1
  O  O107  1  0.77136433  0.26081944  0.60082030  1
  O  O108  1  0.68817190  0.47506050  0.60688840  1
  O  O109  1  0.80678770  0.85623470  0.61789380  1
