# generated using pymatgen
data_Zn2H31C43(NO5)2
_symmetry_space_group_name_H-M   'P 1'
_cell_length_a   12.77508000
_cell_length_b   21.82130000
_cell_length_c   21.91842000
_cell_angle_alpha   92.89211000
_cell_angle_beta   93.14018000
_cell_angle_gamma   102.63042000
_symmetry_Int_Tables_number   1
_chemical_formula_structural   Zn2H31C43(NO5)2
_chemical_formula_sum   'Zn4 H62 C86 N4 O20'
_cell_volume   5941.12435775
_cell_formula_units_Z   2
loop_
 _symmetry_equiv_pos_site_id
 _symmetry_equiv_pos_as_xyz
  1  'x, y, z'
loop_
 _atom_site_type_symbol
 _atom_site_label
 _atom_site_symmetry_multiplicity
 _atom_site_fract_x
 _atom_site_fract_y
 _atom_site_fract_z
 _atom_site_occupancy
  Zn  Zn0  1  0.88716280  0.00423753  0.11836033  1
  Zn  Zn1  1  0.64810705  0.97235876  0.11914183  1
  Zn  Zn2  1  0.76396924  0.43867102  0.66111845  1
  Zn  Zn3  1  0.76319695  0.54063400  0.57568820  1
  H  H4  1  0.07543077  0.52658683  0.50927650  1
  H  H5  1  0.45333830  0.44837990  0.72783340  1
  H  H6  1  0.27604845  0.46104190  0.74199380  1
  H  H7  1  0.25227955  0.51370170  0.49466774  1
  H  H8  1  0.18795116  0.62134767  0.72348213  1
  H  H9  1  0.04679070  0.60290750  0.69829280  1
  H  H10  1  0.08696180  0.60139180  0.77789990  1
  H  H11  1  0.03219578  0.49178475  0.72887194  1
  H  H12  1  0.16547210  0.51325125  0.76031107  1
  H  H13  1  0.48624600  0.37531865  0.53882890  1
  H  H14  1  0.34643350  0.35633624  0.51084600  1
  H  H15  1  0.45097655  0.37858564  0.45884717  1
  H  H16  1  0.36751136  0.46502630  0.47680566  1
  H  H17  1  0.49981636  0.48712468  0.50923530  1
  H  H18  1  0.62159660  0.70036640  0.93791940  1
  H  H19  1  0.90518230  0.77774394  0.79673950  1
  H  H20  1  0.64110340  0.58117050  0.91768110  1
  H  H21  1  0.73655600  0.57719540  0.85976730  1
  H  H22  1  0.49617836  0.51170856  0.84793110  1
  H  H23  1  0.59211290  0.50859330  0.79112023  1
  H  H24  1  0.70128745  0.45951920  0.86592160  1
  H  H25  1  0.56603044  0.41343660  0.85030460  1
  H  H26  1  0.60162790  0.46101907  0.92128860  1
  H  H27  1  0.90830500  0.94492495  0.91492700  1
  H  H28  1  0.77986100  0.89770085  0.88893145  1
  H  H29  1  0.97659450  0.93216634  0.81047520  1
  H  H30  1  0.84557515  0.88645440  0.78339463  1
  H  H31  1  0.76429510  0.97821380  0.80989200  1
  H  H32  1  0.86814030  0.99762120  0.75696737  1
  H  H33  1  0.89610400  0.02430260  0.83666486  1
  H  H34  1  0.59470165  0.73830260  0.30946115  1
  H  H35  1  0.93771696  0.73710030  0.42705157  1
  H  H36  1  0.93729350  0.80699740  0.34226160  1
  H  H37  1  0.59512510  0.66840560  0.39425120  1
  H  H38  1  0.82925590  0.14225894  0.39502320  1
  H  H39  1  0.70403790  0.33441424  0.34360942  1
  H  H40  1  0.76505450  0.14386684  0.50219446  1
  H  H41  1  0.71184860  0.21216190  0.52363890  1
  H  H42  1  0.85485920  0.24381533  0.60718286  1
  H  H43  1  0.77883214  0.16452326  0.61417925  1
  H  H44  1  0.91117510  0.17725627  0.58545333  1
  H  H45  1  0.82149655  0.26456308  0.21501696  1
  H  H46  1  0.76820610  0.33282640  0.23645425  1
  H  H47  1  0.62211310  0.29939740  0.15317768  1
  H  H48  1  0.75447905  0.31221554  0.12447967  1
  H  H49  1  0.67855800  0.23288906  0.13144241  1
  H  H50  1  0.22425248  0.09940493  0.26743346  1
  H  H51  1  0.19217674  0.96793890  0.03384172  1
  H  H52  1  0.15251630  0.87757254  0.95611304  1
  H  H53  1  0.07949046  0.86292780  0.84858346  1
  H  H54  1  0.18350350  0.91847295  0.76778460  1
  H  H55  1  0.36158374  0.98932680  0.79487640  1
  H  H56  1  0.43557290  0.00559425  0.90223370  1
  H  H57  1  0.57160050  0.97239524  0.09772286  1
  H  H58  1  0.11544787  0.91045505  0.12318202  1
  H  H59  1  0.98475870  0.93782836  0.19041690  1
  H  H60  1  0.45324320  0.99546740  0.17243247  1
  H  H61  1  0.35278946  0.07281339  0.19920969  1
  H  H62  1  0.94029340  0.20644698  0.87997310  1
  H  H63  1  0.59256150  0.27096605  0.85647350  1
  H  H64  1  0.59393144  0.16095054  0.87282070  1
  H  H65  1  0.93892324  0.31646252  0.86362594  1
  C  C66  1  0.55829210  0.46778855  0.62814320  1
  C  C67  1  0.97222304  0.50900310  0.60973454  1
  C  C68  1  0.08475319  0.51369256  0.60613230  1
  C  C69  1  0.44550648  0.46273570  0.63122964  1
  C  C70  1  0.30447820  0.46824554  0.69702930  1
  C  C71  1  0.22476216  0.50712234  0.53987960  1
  C  C72  1  0.40497527  0.45778182  0.68864846  1
  C  C73  1  0.12434442  0.51767690  0.54844220  1
  C  C74  1  0.38235710  0.47040617  0.57893217  1
  C  C75  1  0.14830698  0.50623870  0.65827230  1
  C  C76  1  0.28421378  0.48795430  0.58831290  1
  C  C77  1  0.24577485  0.48804140  0.64869760  1
  C  C78  1  0.11224163  0.52159613  0.72190195  1
  C  C79  1  0.10815045  0.59102950  0.73058990  1
  C  C80  1  0.42014820  0.45649472  0.51537603  1
  C  C81  1  0.42637998  0.38747677  0.50572544  1
  C  C82  1  0.68376416  0.71764886  0.90738210  1
  C  C83  1  0.84257555  0.76074510  0.82710710  1
  C  C84  1  0.75651383  0.77556470  0.92247915  1
  C  C85  1  0.76985710  0.70287454  0.81204295  1
  C  C86  1  0.83539260  0.79760087  0.88102650  1
  C  C87  1  0.69046533  0.68119127  0.85301210  1
  C  C88  1  0.74982860  0.81218550  0.97998620  1
  C  C89  1  0.77767926  0.66552824  0.75521880  1
  C  C90  1  0.65067023  0.57659600  0.86756420  1
  C  C91  1  0.58230470  0.51343864  0.84111196  1
  C  C92  1  0.61512120  0.45855033  0.87167510  1
  C  C93  1  0.86762500  0.90531710  0.88209176  1
  C  C94  1  0.88912310  0.92462337  0.81693840  1
  C  C95  1  0.85197940  0.98497630  0.80452174  1
  C  C96  1  0.76550720  0.85176563  0.22990343  1
  C  C97  1  0.76688530  0.62366045  0.50660960  1
  C  C98  1  0.66983235  0.69848910  0.38310617  1
  C  C99  1  0.86258610  0.77692425  0.35339433  1
  C  C100  1  0.86282090  0.73718740  0.40159586  1
  C  C101  1  0.66959745  0.73822580  0.33490467  1
  C  C102  1  0.76645230  0.69821670  0.41615534  1
  C  C103  1  0.76596624  0.77719640  0.32034498  1
  C  C104  1  0.76719930  0.58343770  0.55544500  1
  C  C105  1  0.76518690  0.89200530  0.18108247  1
  C  C106  1  0.76666980  0.65772940  0.46527860  1
  C  C107  1  0.76574560  0.81769230  0.27122900  1
  C  C108  1  0.80116310  0.18389168  0.38351613  1
  C  C109  1  0.73212904  0.29277712  0.35512030  1
  C  C110  1  0.75469410  0.18686000  0.32432187  1
  C  C111  1  0.77859807  0.28980878  0.41431454  1
  C  C112  1  0.72126530  0.24232665  0.31009600  1
  C  C113  1  0.81204110  0.23434703  0.42853743  1
  C  C114  1  0.74269600  0.13350663  0.27826026  1
  C  C115  1  0.79059494  0.34315680  0.46037155  1
  C  C116  1  0.78637950  0.19363642  0.52124490  1
  C  C117  1  0.83605610  0.19495140  0.58610475  1
  C  C118  1  0.74693500  0.28306738  0.21739936  1
  C  C119  1  0.69728136  0.28174263  0.15253182  1
  C  C120  1  0.45011650  0.95349956  0.02108020  1
  C  C121  1  0.48966950  0.97224390  0.08192634  1
  C  C122  1  0.42198290  0.98497486  0.12519968  1
  C  C123  1  0.31385730  0.98056620  0.10838753  1
  C  C124  1  0.27500880  0.96732710  0.04692687  1
  C  C125  1  0.34261300  0.95390460  0.00236008  1
  C  C126  1  0.13962561  0.95132750  0.15512517  1
  C  C127  1  0.06585026  0.96649420  0.19400275  1
  C  C128  1  0.20024751  0.05701387  0.23746508  1
  C  C129  1  0.27364750  0.04203367  0.19836410  1
  C  C130  1  0.24187498  0.99089617  0.15512888  1
  C  C131  1  0.09408347  0.02153099  0.23279838  1
  C  C132  1  0.51737720  0.92245250  0.98406565  1
  C  C133  1  0.01002353  0.04878080  0.25775462  1
  C  C134  1  0.30011600  0.94235975  0.93731713  1
  C  C135  1  0.19901614  0.90229285  0.92141710  1
  C  C136  1  0.15741000  0.89370877  0.86047030  1
  C  C137  1  0.21606237  0.92498140  0.81489974  1
  C  C138  1  0.31647474  0.96488696  0.83017780  1
  C  C139  1  0.35839695  0.97368440  0.89106690  1
  C  C140  1  0.76411290  0.48444226  0.83158016  1
  C  C141  1  0.76875540  0.99296266  0.90485924  1
  C  C142  1  0.86333680  0.28275427  0.86544096  1
  C  C143  1  0.66951793  0.19465877  0.87100554  1
  C  C144  1  0.66877013  0.25726770  0.86170490  1
  C  C145  1  0.86409550  0.22015598  0.87474626  1
  C  C146  1  0.76570415  0.30157605  0.85886710  1
  C  C147  1  0.76715050  0.17583703  0.87757945  1
  C  C148  1  0.76505400  0.36620018  0.84922010  1
  C  C149  1  0.76780080  0.11121280  0.88722646  1
  C  C150  1  0.76815540  0.05723663  0.89527460  1
  C  C151  1  0.76469946  0.42017640  0.84117200  1
  N  N152  1  0.78352170  0.63563454  0.71019655  1
  N  N153  1  0.74476707  0.84169745  0.02537537  1
  N  N154  1  0.80024090  0.38534060  0.49703753  1
  N  N155  1  0.73305124  0.09132818  0.24159892  1
  O  O156  1  0.61343430  0.51660883  0.60494180  1
  O  O157  1  0.91712940  0.46025790  0.63306510  1
  O  O158  1  0.60040885  0.42525010  0.65129250  1
  O  O159  1  0.93015500  0.55161667  0.58671430  1
  O  O160  1  0.61565983  0.62554390  0.83848804  1
  O  O161  1  0.91181827  0.85284820  0.89484850  1
  O  O162  1  0.85684800  0.58372074  0.58551240  1
  O  O163  1  0.67553850  0.89172220  0.15101510  1
  O  O164  1  0.67791396  0.54770510  0.56843060  1
  O  O165  1  0.85447240  0.92773780  0.16809686  1
  O  O166  1  0.86130834  0.23085438  0.48559794  1
  O  O167  1  0.67201240  0.24582407  0.25303248  1
  O  O168  1  0.03715479  0.10191858  0.28786650  1
  O  O169  1  0.91326064  0.02478361  0.23924091  1
  O  O170  1  0.61701450  0.93502250  0.00035360  1
  O  O171  1  0.47369730  0.87460880  0.94853810  1
  O  O172  1  0.85265680  0.52395475  0.82605460  1
  O  O173  1  0.68019790  0.95345825  0.91039200  1
  O  O174  1  0.67486810  0.50181450  0.82863784  1
  O  O175  1  0.85798640  0.97559860  0.90780880  1
