# generated using pymatgen
data_Cr12H35C99S3Br4N12(ClO25)3
_symmetry_space_group_name_H-M   'P 1'
_cell_length_a   11.79264000
_cell_length_b   20.22007000
_cell_length_c   20.38568000
_cell_angle_alpha   96.31605000
_cell_angle_beta   91.16499000
_cell_angle_gamma   94.93105000
_symmetry_Int_Tables_number   1
_chemical_formula_structural   Cr12H35C99S3Br4N12(ClO25)3
_chemical_formula_sum   'Cr12 H35 C99 S3 Br4 N12 Cl3 O75'
_cell_volume   4811.35972806
_cell_formula_units_Z   1
loop_
 _symmetry_equiv_pos_site_id
 _symmetry_equiv_pos_as_xyz
  1  'x, y, z'
loop_
 _atom_site_type_symbol
 _atom_site_label
 _atom_site_symmetry_multiplicity
 _atom_site_fract_x
 _atom_site_fract_y
 _atom_site_fract_z
 _atom_site_occupancy
  Cr  Cr0  1  0.62637940  0.33317740  0.55816170  1
  Cr  Cr1  1  0.44667700  0.46192467  0.54556740  1
  Cr  Cr2  1  0.32887733  0.29887733  0.56271940  1
  Cr  Cr3  1  0.59276370  0.61567867  0.05614217  1
  Cr  Cr4  1  0.54198020  0.77607550  0.09583395  1
  Cr  Cr5  1  0.32272348  0.66126130  0.03449895  1
  Cr  Cr6  1  0.83932066  0.89683086  0.56063970  1
  Cr  Cr7  1  0.13099790  0.93012184  0.54572326  1
  Cr  Cr8  1  0.01676452  0.77232680  0.56432300  1
  Cr  Cr9  1  0.12168956  0.26438227  0.07521880  1
  Cr  Cr10  1  0.01844108  0.10138062  0.06583741  1
  Cr  Cr11  1  0.83781767  0.22333577  0.04201517  1
  H  H12  1  0.29392952  0.99542170  0.30035910  1
  H  H13  1  0.93815000  0.80415404  0.21328999  1
  H  H14  1  0.53707206  0.66960290  0.30704495  1
  H  H15  1  0.20363067  0.56998515  0.27317092  1
  H  H16  1  0.70361800  0.21036388  0.17516354  1
  H  H17  1  0.54787130  0.15507847  0.34984380  1
  H  H18  1  0.87371993  0.25823423  0.30794820  1
  H  H19  1  0.81515600  0.38037090  0.30856150  1
  H  H20  1  0.83349794  0.98376775  0.21280925  1
  H  H21  1  0.97955483  0.66253170  0.27967283  1
  H  H22  1  0.70092290  0.62175465  0.18337084  1
  H  H23  1  0.78081860  0.93733570  0.29014474  1
  H  H24  1  0.98504066  0.97663470  0.40740132  1
  H  H25  1  0.42134017  0.85531670  0.46862155  1
  H  H26  1  0.76552350  0.82963350  0.57151216  1
  H  H27  1  0.68933105  0.21495986  0.78101766  1
  H  H28  1  0.98709760  0.42296390  0.68883777  1
  H  H29  1  0.77349190  0.47166517  0.79240250  1
  H  H30  1  0.75728870  0.30011326  0.87438923  1
  H  H31  1  0.26507413  0.27430168  0.40483450  1
  H  H32  1  0.08404584  0.25888067  0.34572786  1
  H  H33  1  0.53247106  0.20922089  0.32861530  1
  H  H34  1  0.04933146  0.16686930  0.17050338  1
  H  H35  1  0.42902744  0.39119866  0.42839867  1
  H  H36  1  0.96959430  0.36015534  0.25709856  1
  H  H37  1  0.35355413  0.22447848  0.11915912  1
  H  H38  1  0.20388159  0.20187807  0.10223396  1
  H  H39  1  0.28435050  0.25312984  0.04957082  1
  H  H40  1  0.15634146  0.31585798  0.12968004  1
  H  H41  1  0.29889005  0.34946900  0.13206147  1
  H  H42  1  0.57508230  0.42220506  0.21073993  1
  H  H43  1  0.42513335  0.43280060  0.21670857  1
  H  H44  1  0.50818480  0.42038774  0.28920612  1
  H  H45  1  0.54136217  0.30496013  0.23731071  1
  H  H46  1  0.46587730  0.31805113  0.16553806  1
  C  C47  1  0.05064344  0.07374860  0.94425150  1
  C  C48  1  0.91798365  0.97933050  0.66278964  1
  C  C49  1  0.07612336  0.05360899  0.87465775  1
  C  C50  1  0.88911813  0.00453138  0.73005915  1
  C  C51  1  0.99185824  0.02058876  0.83537760  1
  C  C52  1  0.97433880  0.03703785  0.76771754  1
  C  C53  1  0.39383000  0.62865454  0.89172894  1
  C  C54  1  0.55016460  0.42254394  0.68875260  1
  C  C55  1  0.37924096  0.58266115  0.83008700  1
  C  C56  1  0.56387370  0.46316350  0.75306356  1
  C  C57  1  0.47272060  0.55774474  0.80409020  1
  C  C58  1  0.46976954  0.48707658  0.77751090  1
  C  C59  1  0.28919710  0.58271860  0.29344133  1
  C  C60  1  0.35318393  0.64255870  0.29332440  1
  C  C61  1  0.19401590  0.86347204  0.26565897  1
  C  C62  1  0.23483190  0.81189920  0.26045042  1
  C  C63  1  0.27915403  0.75172100  0.26317382  1
  C  C64  1  0.31436190  0.70085025  0.27363956  1
  C  C65  1  0.20272163  0.98449856  0.29548360  1
  C  C66  1  0.14357269  0.92362280  0.27741936  1
  C  C67  1  0.02851071  0.93015950  0.28421860  1
  C  C68  1  0.46339476  0.63473564  0.31118488  1
  C  C69  1  0.78047330  0.16827027  0.37548137  1
  C  C70  1  0.68805220  0.40429620  0.23853396  1
  C  C71  1  0.66574380  0.25247738  0.20102187  1
  C  C72  1  0.59138966  0.20069537  0.33585823  1
  C  C73  1  0.71817970  0.20831023  0.33562586  1
  C  C74  1  0.78126884  0.25212252  0.30298686  1
  C  C75  1  0.75399697  0.35883477  0.26972994  1
  C  C76  1  0.73145420  0.29177550  0.25788770  1
  C  C77  1  0.36963853  0.69537650  0.91109765  1
  C  C78  1  0.14574009  0.84678770  0.77005230  1
  C  C79  1  0.10239457  0.88806420  0.72413180  1
  C  C80  1  0.25038722  0.76978530  0.84190613  1
  C  C81  1  0.19081692  0.81128070  0.80458600  1
  C  C82  1  0.30434203  0.73510885  0.87296140  1
  C  C83  1  0.13803543  0.13396238  0.23112641  1
  C  C84  1  0.08468255  0.98906285  0.32710140  1
  C  C85  1  0.01749245  0.01186820  0.37544880  1
  C  C86  1  0.14416717  0.03652061  0.29000995  1
  C  C87  1  0.08266459  0.07556909  0.25598758  1
  C  C88  1  0.96643525  0.96647160  0.41657233  1
  C  C89  1  0.95895183  0.05707323  0.23838392  1
  C  C90  1  0.93770736  0.74947155  0.39230514  1
  C  C91  1  0.55057025  0.78385770  0.23090132  1
  C  C92  1  0.79139720  0.81624806  0.35343927  1
  C  C93  1  0.69571775  0.82221144  0.31698352  1
  C  C94  1  0.84681827  0.75793730  0.34557375  1
  C  C95  1  0.65501845  0.77440760  0.26601362  1
  C  C96  1  0.81579400  0.71008930  0.29006788  1
  C  C97  1  0.72057850  0.71948725  0.24856365  1
  C  C98  1  0.64642400  0.87006533  0.36827310  1
  C  C99  1  0.75618374  0.86281157  0.41114277  1
  C  C100  1  0.88756055  0.65377760  0.27421883  1
  C  C101  1  0.69429940  0.67499614  0.18593700  1
  C  C102  1  0.63618684  0.93817925  0.34326628  1
  C  C103  1  0.83563703  0.92624870  0.42447585  1
  C  C104  1  0.53585076  0.84296757  0.39708441  1
  C  C105  1  0.73920250  0.82727724  0.47304758  1
  C  C106  1  0.79181520  0.29520625  0.75061210  1
  C  C107  1  0.76726890  0.23053682  0.75689760  1
  C  C108  1  0.72080680  0.34103410  0.78611880  1
  C  C109  1  0.66110560  0.38411194  0.89311016  1
  C  C110  1  0.71008250  0.33521098  0.85044867  1
  C  C111  1  0.82231030  0.17768383  0.72219660  1
  C  C112  1  0.10218451  0.22357635  0.93574065  1
  C  C113  1  0.33045074  0.32725602  0.66627360  1
  C  C114  1  0.27390566  0.29937150  0.71932350  1
  C  C115  1  0.15828635  0.24133661  0.87805337  1
  C  C116  1  0.19707559  0.25712305  0.82744260  1
  C  C117  1  0.23652236  0.27839628  0.76808420  1
  C  C118  1  0.52870100  0.49730098  0.22727570  1
  C  C119  1  0.50256640  0.52441776  0.35434467  1
  C  C120  1  0.51790560  0.51010920  0.28588617  1
  C  C121  1  0.48139660  0.53605590  0.41186450  1
  C  C122  1  0.54492384  0.48131013  0.15791771  1
  C  C123  1  0.44087932  0.54902640  0.47750577  1
  C  C124  1  0.04690367  0.26784244  0.22326764  1
  C  C125  1  0.24369778  0.30531135  0.14380386  1
  C  C126  1  0.27334887  0.24237438  0.10134783  1
  C  C127  1  0.46906087  0.33074892  0.21976756  1
  C  C128  1  0.49570820  0.40618357  0.23521559  1
  C  C129  1  0.25368390  0.29716596  0.21689520  1
  C  C130  1  0.35917452  0.30729810  0.25173426  1
  C  C131  1  0.35953820  0.29805365  0.31932372  1
  C  C132  1  0.15640393  0.27998530  0.25269820  1
  C  C133  1  0.26200390  0.28111202  0.35277355  1
  C  C134  1  0.16028297  0.27243440  0.31950724  1
  C  C135  1  0.53380084  0.25626063  0.35957740  1
  C  C136  1  0.00349312  0.20805867  0.19087923  1
  C  C137  1  0.48290846  0.35298950  0.41073030  1
  C  C138  1  0.96114760  0.30819765  0.23680753  1
  C  C139  1  0.46075323  0.30520797  0.35779017  1
  C  C140  1  0.87450606  0.81846935  0.77290530  1
  C  C141  1  0.97109520  0.84411340  0.73939010  1
  C  C142  1  0.53010550  0.69273996  0.87793520  1
  C  C143  1  0.61814535  0.72449370  0.84215695  1
  C  C144  1  0.79204553  0.79073817  0.79517000  1
  C  C145  1  0.69688076  0.75482510  0.81893176  1
  S  S146  1  0.93092800  0.86583540  0.30637510  1
  S  S147  1  0.91516180  0.32720533  0.71355575  1
  S  S148  1  0.64888006  0.39736164  0.74281470  1
  Br  Br149  1  0.90085030  0.94526404  0.86467650  1
  Br  Br150  1  0.02967572  0.12391637  0.74404573  1
  Br  Br151  1  0.60892400  0.61651590  0.79399640  1
  Br  Br152  1  0.35703948  0.42229852  0.80688070  1
  N  N153  1  0.18875933  0.06683008  0.84910640  1
  N  N154  1  0.77478890  0.02162431  0.74320567  1
  N  N155  1  0.26886055  0.56587980  0.79690550  1
  N  N156  1  0.65288186  0.45126220  0.79883900  1
  N  N157  1  0.12507227  0.02764070  0.30939832  1
  N  N158  1  0.01761759  0.99559903  0.29847595  1
  N  N159  1  0.46640757  0.57139390  0.32328182  1
  N  N160  1  0.35895290  0.53935220  0.31235945  1
  N  N161  1  0.89283200  0.21263818  0.18300648  1
  N  N162  1  0.57642960  0.33766025  0.44051380  1
  N  N163  1  0.86591010  0.27389988  0.21251783  1
  N  N164  1  0.60328890  0.27638660  0.41099864  1
  Cl  Cl165  1  0.09983877  0.90349130  0.30303064  1
  Cl  Cl166  1  0.00359446  0.09774724  0.39952210  1
  Cl  Cl167  1  0.29189196  0.05044980  0.30987763  1
  O  O168  1  0.94651880  0.05927828  0.96299200  1
  O  O169  1  0.02207518  0.99370855  0.64441360  1
  O  O170  1  0.12988210  0.10740971  0.98374975  1
  O  O171  1  0.83871174  0.94557714  0.62365586  1
  O  O172  1  0.27152002  0.09680607  0.88720727  1
  O  O173  1  0.21498549  0.03646063  0.79248320  1
  O  O174  1  0.71269006  0.03935225  0.69589436  1
  O  O175  1  0.74299544  0.03508188  0.80360305  1
  O  O176  1  0.49700624  0.64122020  0.91795020  1
  O  O177  1  0.44711834  0.41034610  0.66270180  1
  O  O178  1  0.30430815  0.65279820  0.91944593  1
  O  O179  1  0.63981650  0.39876804  0.66120600  1
  O  O180  1  0.17875770  0.59136450  0.82054347  1
  O  O181  1  0.26217672  0.53725010  0.73634666  1
  O  O182  1  0.68995124  0.39237225  0.79590460  1
  O  O183  1  0.67687917  0.49238467  0.85196080  1
  O  O184  1  0.46729818  0.36463624  0.55538607  1
  O  O185  1  0.99171010  0.82075334  0.34631810  1
  O  O186  1  0.83947450  0.89527350  0.34752047  1
  O  O187  1  0.87267077  0.82022550  0.23813333  1
  O  O188  1  0.88063320  0.19283463  0.39672240  1
  O  O189  1  0.56764007  0.26101705  0.18657055  1
  O  O190  1  0.53471940  0.24602795  0.32418874  1
  O  O191  1  0.73772960  0.10926525  0.38584712  1
  O  O192  1  0.72870284  0.46533057  0.23219788  1
  O  O193  1  0.58579920  0.38176116  0.22132261  1
  O  O194  1  0.47862726  0.71019256  0.91245884  1
  O  O195  1  0.33454064  0.63228005  0.90709820  1
  O  O196  1  0.01626209  0.86575360  0.68718773  1
  O  O197  1  0.16374587  0.93976560  0.71302664  1
  O  O198  1  0.07614216  0.17969252  0.21430387  1
  O  O199  1  0.24405335  0.13237815  0.21740459  1
  O  O200  1  0.86289450  0.97194880  0.43428037  1
  O  O201  1  0.03080567  0.92463440  0.43738112  1
  O  O202  1  0.89340440  0.10045562  0.23590586  1
  O  O203  1  0.91816930  0.98986787  0.22402623  1
  O  O204  1  0.49513775  0.87765175  0.45366820  1
  O  O205  1  0.69049560  0.77095956  0.46915263  1
  O  O206  1  0.78101003  0.85851103  0.53450304  1
  O  O207  1  0.95365375  0.69146030  0.40765688  1
  O  O208  1  0.48122743  0.73361030  0.21089340  1
  O  O209  1  0.00492620  0.80000750  0.41432840  1
  O  O210  1  0.53249990  0.84215750  0.21756482  1
  O  O211  1  0.84524660  0.59691570  0.25837737  1
  O  O212  1  0.66674380  0.69799150  0.13562155  1
  O  O213  1  0.55573720  0.96998040  0.35939520  1
  O  O214  1  0.71614580  0.96585420  0.30175236  1
  O  O215  1  0.80660987  0.97312385  0.46158892  1
  O  O216  1  0.94109930  0.93161577  0.39447380  1
  O  O217  1  0.48299056  0.79147150  0.37177560  1
  O  O218  1  0.48582456  0.68433960  0.06215927  1
  O  O219  1  0.75355650  0.12941986  0.69516400  1
  O  O220  1  0.93240255  0.18039913  0.71706456  1
  O  O221  1  0.01559126  0.31188592  0.75387300  1
  O  O222  1  0.91971344  0.29374436  0.64435530  1
  O  O223  1  0.91723865  0.41028744  0.71233314  1
  O  O224  1  0.55210350  0.38014466  0.89997786  1
  O  O225  1  0.65633893  0.37858270  0.66971564  1
  O  O226  1  0.52581870  0.39448810  0.76091910  1
  O  O227  1  0.70860450  0.47568533  0.76200354  1
  O  O228  1  0.73094950  0.43112394  0.92187834  1
  O  O229  1  0.99569756  0.86642694  0.55689514  1
  O  O230  1  0.11230344  0.16320588  0.94897200  1
  O  O231  1  0.38777986  0.28920072  0.62843670  1
  O  O232  1  0.09846064  0.27064836  0.98372656  1
  O  O233  1  0.34285740  0.39052963  0.66850530  1
  O  O234  1  0.99265057  0.19636533  0.06102726  1
  O  O235  1  0.45815226  0.60748214  0.50818354  1
  O  O236  1  0.36936784  0.50575110  0.49677664  1
  O  O237  1  0.58360640  0.53131014  0.12711102  1
  O  O238  1  0.46965593  0.43786620  0.12660402  1
  O  O239  1  0.44191435  0.72505920  0.89021415  1
  O  O240  1  0.55606180  0.64341724  0.90826700  1
  O  O241  1  0.95519620  0.88889550  0.70039800  1
  O  O242  1  0.05782926  0.80976760  0.73778826  1
