# generated using pymatgen
data_ZnH6C15NO6
_symmetry_space_group_name_H-M   'P 1'
_cell_length_a   13.32920000
_cell_length_b   14.99513000
_cell_length_c   16.04846000
_cell_angle_alpha   90.04102000
_cell_angle_beta   90.50851000
_cell_angle_gamma   90.18327000
_symmetry_Int_Tables_number   1
_chemical_formula_structural   ZnH6C15NO6
_chemical_formula_sum   'Zn2 H12 C30 N2 O12'
_cell_volume   3207.51161050
_cell_formula_units_Z   2
loop_
 _symmetry_equiv_pos_site_id
 _symmetry_equiv_pos_as_xyz
  1  'x, y, z'
loop_
 _atom_site_type_symbol
 _atom_site_label
 _atom_site_symmetry_multiplicity
 _atom_site_fract_x
 _atom_site_fract_y
 _atom_site_fract_z
 _atom_site_occupancy
  _atom_site_charge
  Zn  Zn0  1  0.03172100  0.79317340  0.73356990  1  1.114759
  Zn  Zn1  1  0.95942956  0.68190700  0.87778960  1  1.113213
  H  H2  1  0.97249840  0.85990906  0.28051868  1  0.042952
  H  H3  1  0.17735970  0.68449914  0.36019942  1  0.039373
  H  H4  1  0.02509510  0.55198514  0.37446070  1  0.041979
  H  H5  1  0.09747243  0.73305080  0.20184810  1  0.035706
  H  H6  1  0.82045160  0.72790766  0.29548806  1  0.039713
  H  H7  1  0.90021217  0.67947870  0.45354193  1  0.028601
  H  H8  1  0.85378750  0.35495730  0.93058730  1  0.162652
  H  H9  1  0.13843656  0.11920476  0.67819923  1  0.166630
  H  H10  1  0.10940361  0.41953173  0.73785500  1  0.134598
  H  H11  1  0.88281200  0.05471655  0.87094880  1  0.135529
  H  H12  1  0.46390820  0.81709760  0.75037590  1  0.046793
  H  H13  1  0.52994580  0.66125494  0.86170155  1  0.045227
  C  C14  1  0.01347661  0.62182134  0.35367852  1  -0.032455
  C  C15  1  0.09663463  0.69386050  0.34516227  1  -0.030767
  C  C16  1  0.07742238  0.87869540  0.50589900  1  -0.096200
  C  C17  1  0.90997550  0.55044300  0.13982849  1  -0.100018
  C  C18  1  0.94459325  0.69108355  0.39634782  1  -0.037587
  C  C19  1  0.02718175  0.76204250  0.38662663  1  0.007501
  C  C20  1  0.90123457  0.71847945  0.31029433  1  -0.028284
  C  C21  1  0.97048290  0.65024704  0.26868150  1  0.005207
  C  C22  1  0.98418415  0.79017097  0.30155337  1  -0.032853
  C  C23  1  0.05310249  0.72121800  0.25905752  1  -0.033114
  C  C24  1  0.05630851  0.82590820  0.45176414  1  0.016334
  C  C25  1  0.87773210  0.50921065  0.06342798  1  0.285881
  C  C26  1  0.93753994  0.59231067  0.20001796  1  0.035445
  C  C27  1  0.09877992  0.94018770  0.57234610  1  0.215432
  C  C28  1  0.00649440  0.14374642  0.78702754  1  -0.104121
  C  C29  1  0.98847410  0.33015555  0.82405514  1  -0.102319
  C  C30  1  0.93526345  0.17436512  0.84597385  1  0.102842
  C  C31  1  0.05943644  0.29959947  0.76482660  1  0.102037
  C  C32  1  0.06831789  0.20772596  0.74657720  1  0.120381
  C  C33  1  0.92638570  0.26620033  0.86421570  1  0.119408
  C  C34  1  0.01610041  0.04779175  0.76844716  1  0.123110
  C  C35  1  0.97954303  0.42595354  0.84356374  1  0.120060
  C  C36  1  0.17652127  0.67228090  0.88319930  1  0.283766
  C  C37  1  0.81733280  0.80607176  0.72887826  1  0.284356
  C  C38  1  0.28238454  0.68619907  0.86379373  1  -0.120019
  C  C39  1  0.71146960  0.79215354  0.74828374  1  -0.120725
  C  C40  1  0.47858867  0.70733790  0.83144980  1  -0.055534
  C  C41  1  0.51526535  0.77101450  0.78062760  1  -0.056015
  C  C42  1  0.62277270  0.78118116  0.76398490  1  0.052496
  C  C43  1  0.37108150  0.69717145  0.84809260  1  0.052027
  N  N44  1  0.97231400  0.50177790  0.85901330  1  -0.213316
  N  N45  1  0.02354598  0.97181517  0.75374365  1  -0.222297
  O  O46  1  0.79059050  0.52623750  0.03599937  1  -0.252925
  O  O47  1  0.94224820  0.47026145  0.01837855  1  -0.233976
  O  O48  1  0.19313180  0.95300750  0.58966315  1  -0.225368
  O  O49  1  0.04123294  0.00922847  0.57498986  1  -0.200772
  O  O50  1  0.85504085  0.28964356  0.92243820  1  -0.253861
  O  O51  1  0.13934350  0.18424332  0.68810433  1  -0.251775
  O  O52  1  0.12265241  0.35690110  0.72240037  1  -0.250029
  O  O53  1  0.87171520  0.11715812  0.88817626  1  -0.251794
  O  O54  1  0.11068706  0.71828340  0.83733220  1  -0.589770
  O  O55  1  0.88316700  0.76006910  0.77474520  1  -0.597375
  O  O56  1  0.83778510  0.86364240  0.66784510  1  -0.290261
  O  O57  1  0.15606877  0.61471003  0.94423234  1  -0.290481
