data_I
_chemical_name_common  'results/nh3_target_22mmol_v2/cif/sample_10'
_cell_length_a 10.03365
_cell_length_b 10.71546
_cell_length_c 15.56422
_cell_angle_alpha 90.75903
_cell_angle_beta  90.89001
_cell_angle_gamma 88.65398
_space_group_name_H-M_alt      'P 1'


loop_
_space_group_symop_operation_xyz
  'x, y, z' 

loop_
_atom_site_label
_atom_site_fract_x
_atom_site_fract_y
_atom_site_fract_z
_atom_site_type_symbol
Zn0   0.552561 0.79382735 0.30644572    Zn
Zn1   0.5023529 0.52002186 0.26962134    Zn
H2    0.37602812 0.5186952 0.8537573     H
H3    0.47976294 0.85165435 0.7137845     H
H4    0.3443051 0.7457197 0.7102046     H
H5    0.33806995 0.74955773 0.856543     H
H6    0.4748559 0.8535672 0.8607318     H
H7    0.5572469 0.44979912 0.7139547     H
H8    0.74894583 0.5921097 0.7224531     H
H9    0.7431372 0.5950045 0.8666326     H
H10   0.38946587 0.50963897 0.70861065     H
C11   0.54338175 0.6401492 0.44598022     C
C12   0.48222047 0.528463 0.8357145     C
C13   0.5335427 0.65478146 0.8722811     C
C14   0.512034 0.66685563 0.13060284     C
C15   0.6797264 0.6743393 0.8432049     C
C16   0.49021465 0.5272041 0.73663986     C
C17   0.44667014 0.7596582 0.73671544     C
C18   0.44268793 0.76115197 0.83571154     C
C19   0.51824754 0.65958405 0.040840864     C
C20   0.6845467 0.6729281 0.74272746     C
C21   0.5417161 0.6535026 0.7048912     C
C22   0.5249506 0.65616536 0.9647992     C
C23   0.5426727 0.65066063 0.6121573     C
C24   0.5428306 0.64675015 0.535932     C
Br25  0.57715607 0.3829827 0.88360953    Br
Br26  0.7587451 0.82142866 0.8992399    Br
Cl27  0.7604178 0.8076715 0.69772893    Cl
O28   0.5215859 0.5327659 0.40962014     O
O29   0.5672854 0.741266 0.40441734     O
O30   0.4876019 0.5658039 0.17213023     O
O31   0.5333014 0.7743039 0.16692734     O
H32   0.54950154 0.26278207 0.34017333     H
H33   0.6384528 0.14220466 0.23095341     H
C34   0.36355254 0.37214017 0.32986757     C
C35   0.6983321 0.94551945 0.24388537     C
C36   0.476542 0.04102244 0.2781323     C
C37   0.60071886 0.050847102 0.24548687     C
C38   0.44356436 0.25674415 0.32813132     C
C39   0.39175496 0.15050146 0.29885066     C
Br40  0.39154616 0.8898705 0.3060471    Br
O41   0.24053286 0.3715271 0.3079564     O
O42   0.42666665 0.47184113 0.33905464     O
O43   0.6532827 0.836249 0.24471211     O
O44   0.82211983 0.96602875 0.25791574     O
F45   0.25756827 0.13708948 0.2960083     F
H46   0.15735766 0.47011217 0.26909912     H
H47   0.9059706 0.471091 0.25507605     H
H48   0.9294641 0.71958643 0.33559242     H
C49   0.10378639 0.5590789 0.27278486     C
C50   0.9540814 0.55641747 0.27528706     C
N51   0.17171255 0.6603014 0.27214518     N
N52   0.8812444 0.6473725 0.30528235     N
F53   0.104239434 0.76617014 0.2542746     F
loop_
_geom_bond_atom_site_label_1
_geom_bond_atom_site_label_2
_geom_bond_distance
_geom_bond_site_symmetry_2
_ccdc_geom_bond_type
Zn0   Zn1    3.03418       .     S
Zn0   O29    1.63587       .     S
Zn0   O31    2.18479       .     D
Zn0   O43    1.48811       .     S
Zn0   O44    3.40960       .     S
Zn0   N51    4.13615       .     T
Zn1   Zn0    3.03418       .     S
Zn1   O28    2.18726       .     S
Zn1   O30    1.60447       .     S
Zn1   O41    3.17164       .     S
Zn1   O42    1.43868       .     S
Zn1   N52    4.09646       .     S
H2    C12    1.11374       .     S
H3    C17    1.11255       .     S
H4    C17    1.11351       .     S
H5    C18    1.11364       .     S
H6    C18    1.11236       .     S
H7    C16    1.11283       .     S
H8    C20    1.11349       .     S
H9    C15    1.11177       .     S
H10   C16    1.11386       .     S
C11   C24    1.40097       .     S
C11   O28    1.29724       .     S
C11   O29    1.29830       .     S
C12   H2     1.11374       .     S
C12   C13    1.55706       .     S
C12   C16    1.54521       .     S
C12   Br25   1.95759       .     S
C13   C12    1.55706       .     S
C13   C15    1.56130       .     T
C13   C18    1.55126       .     S
C13   C22    1.44375       .     D
C14   C19    1.40049       .     S
C14   O30    1.29857       .     D
C14   O31    1.29667       .     S
C15   H9     1.11177       .     S
C15   C13    1.56130       .     T
C15   C20    1.56521       .     S
C15   Br26   1.96831       .     S
C16   H7     1.11283       .     S
C16   H10    1.11386       .     S
C16   C12    1.54521       .     S
C16   C21    1.54960       .     S
C17   H3     1.11255       .     S
C17   H4     1.11351       .     S
C17   C18    1.54180       .     S
C17   C21    1.54839       .     S
C18   H5     1.11364       .     S
C18   H6     1.11236       .     S
C18   C13    1.55126       .     S
C18   C17    1.54180       .     S
C19   C14    1.40049       .     S
C19   C22    1.18651   1_554     S
C20   H8     1.11349       .     S
C20   C15    1.56521       .     S
C20   C21    1.55836       .     S
C20   Cl27   1.80269       .     S
C21   C16    1.54960       .     S
C21   C17    1.54839       .     S
C21   C20    1.55836       .     S
C21   C23    1.44343       .     T
C22   C13    1.44375       .     S
C22   C19    1.18651   1_556     D
C23   C21    1.44343       .     S
C23   C24    1.18660       .     D
C24   C11    1.40097       .     S
C24   C23    1.18660       .     S
Br25  C12    1.95759       .     S
Br26  C15    1.96831       .     D
Cl27  C20    1.80269       .     S
O28   Zn1    2.18726       .     S
O28   C11    1.29724       .     S
O29   Zn0    1.63587       .     S
O29   C11    1.29830       .     S
O30   Zn1    1.60447       .     S
O30   C14    1.29857       .     D
O31   Zn0    2.18479       .     S
O31   C14    1.29667       .     D
H32   C38    1.07975       .     S
H33   C37    1.08571       .     S
C34   C38    1.45855       .     S
C34   O41    1.27561       .     D
C34   O42    1.26006       .     S
C35   C37    1.47708   1_565     S
C35   O43    1.26526       .     S
C35   O44    1.28132       .     S
C36   C37    1.35974       .     S
C36   C39    1.46817       .     S
C36   Br40   1.90641   1_545     D
C37   H33    1.08571       .     S
C37   C35    1.47708   1_545     S
C37   C36    1.35974       .     S
C38   H32    1.07975       .     D
C38   C34    1.45855       .     S
C38   C39    1.33441       .     S
C39   C36    1.46817       .     S
C39   C38    1.33441       .     S
C39   F45    1.35736       .     S
Br40  C36    1.90641   1_565     S
O41   Zn1    3.17164       .     D
O41   C34    1.27561       .     S
O42   Zn1    1.43868       .     S
O42   C34    1.26006       .     S
O43   Zn0    1.48811       .     S
O43   C35    1.26526       .     S
O44   Zn0    3.40960       .     S
O44   C35    1.28132       .     S
F45   C39    1.35736       .     S
H46   C49    1.08465       .     S
H47   C50    1.08459       .     S
H48   N52    1.02773       .     S
C49   H46    1.08465       .     S
C49   C50    1.50415   1_455     S
C49   N51    1.29472       .     S
C50   H47    1.08459       .     S
C50   C49    1.50415   1_655     S
C50   N52    1.29113       .     S
N51   Zn0    4.13615       .     S
N51   C49    1.29472       .     S
N51   F53    1.33756       .     S
N52   Zn1    4.09646       .     S
N52   H48    1.02773       .     S
N52   C50    1.29113       .     S
F53   N51    1.33756       .     S
