data_I
_chemical_name_common  'results/nh3_target_22mmol_v2/cif/sample_7'
_cell_length_a 16.06007
_cell_length_b 16.23543
_cell_length_c 17.65924
_cell_angle_alpha 100.70659
_cell_angle_beta  101.32796
_cell_angle_gamma 83.24268
_space_group_name_H-M_alt      'P 1'


loop_
_space_group_symop_operation_xyz
  'x, y, z' 

loop_
_atom_site_label
_atom_site_fract_x
_atom_site_fract_y
_atom_site_fract_z
_atom_site_type_symbol
Zn0   0.56839454 0.3028469 0.024858952    Zn
Zn1   0.4367881 0.20433924 0.9067028    Zn
H2    0.2934895 0.22694181 0.22823857     H
H3    0.713649 0.28286538 0.70348823     H
H4    0.48817497 0.16107646 0.44778743     H
H5    0.5189595 0.3487307 0.48394015     H
H6    0.614439 0.3347203 0.39670223     H
H7    0.3926994 0.17508695 0.53502446     H
H8    0.7190143 0.30626357 0.5837748     H
H9    0.2881242 0.20354378 0.347952     H
C10   0.3541801 0.2912067 0.12374992     C
C11   0.6529584 0.21860066 0.80797684     C
C12   0.3963829 0.28780046 0.20563932     C
C13   0.6107599 0.22201629 0.7261005     C
C14   0.3539371 0.25306496 0.25286528     C
C15   0.6532013 0.2567424 0.67886144     C
C16   0.38715136 0.25304705 0.332263     C
C17   0.6199914 0.25676978 0.5994768     C
C18   0.4659085 0.28628784 0.36491066     C
C19   0.54122996 0.22351933 0.56681603     C
C20   0.5104576 0.32052642 0.31782344     C
C21   0.49668092 0.18928099 0.61390334     C
C22   0.47501382 0.32229483 0.23886529     C
C23   0.53212464 0.18751247 0.69286144     C
C24   0.4991155 0.28938827 0.44925427     C
C25   0.50802296 0.22041917 0.48247254     C
Cl26  0.47652414 0.13803403 0.7467192    Cl
Cl27  0.5306144 0.37177312 0.1850075    Cl
O28   0.4007119 0.2968666 0.073170386     O
O29   0.60642654 0.21294063 0.8585564     O
O30   0.27233478 0.2862743 0.10700792     O
O31   0.7348037 0.2235329 0.82471883     O
O32   0.58841777 0.35337532 0.34649068     O
O33   0.4187207 0.15643196 0.5852361     O
O34   0.6648035 0.28626984 0.55212885     O
O35   0.34233493 0.22353745 0.37959787     O
H36   0.570709 0.46223876 0.83918226     H
H37   0.6693602 0.4845795 0.8869699     H
H38   0.43422177 0.05262363 0.09605086     H
H39   0.33557054 0.030282855 0.048263192     H
H40   0.5404303  0.76094 0.8038447     H
H41   0.4644953 0.7539202 0.13137901     H
H42   0.45474562 0.9745141 0.74363536     H
H43   0.55171764 0.0052171946 0.7932624     H
H44   0.55018526 0.54034823 0.19159782     H
H45   0.4532131 0.5096451 0.14197063     H
H46   0.5665322 0.62297666 0.8933482     H
H47   0.43839866 0.89188564 0.04188478     H
C48   0.5196769 0.65820557 0.0031095743     C
C49   0.4986594 0.8879871 0.8662385     C
C50   0.50627136 0.6268752 0.06899464     C
C51   0.47529545 0.97490156 0.86094135     C
C52   0.52963537 0.5399608 0.074291825     C
C53   0.5361258 0.8281735 0.8041111     C
C54   0.46880507 0.6866889 0.131122     C
C55   0.42777985 0.9980318 0.9829436     C
C56   0.577151 0.51683056 0.9522895     C
C57   0.44952896 0.91304475 0.9903533     C
C58   0.55540186 0.60181755 0.94487983     C
C59   0.48525384 0.8566568 0.93212354     C
N60   0.39175338 0.053721666 0.043107748     N
N61   0.4866637 0.008939147 0.79485476     N
N62   0.5182671 0.5059233 0.14037836     N
N63   0.44060972 0.027707338 0.9189342     N
N64   0.56432104 0.4871549 0.01629889     N
N65   0.50923723 0.76918054 0.93771446     N
N66   0.49569368 0.7456818 0.9975187     N
N67   0.6131773 0.46114072 0.89212525     N
O68   0.5639922 0.85206145 0.75318784     O
O69   0.44096202 0.66280574  0.18206     O
H70   0.28051057 0.45044652 0.9855949     H
H71   0.77059984 0.23925409 0.18182778     H
H72   0.17992087 0.38653585 0.037887096     H
H73   0.90943265 0.2648417 0.15855336     H
H74   0.7675076 0.014838835 0.0060065985     H
H75   0.90572035 0.040627465 0.98288554     H
C76   0.36057854 0.38535488 0.8656266     C
C77   0.28893495 0.35046515 0.8870812     C
C78   0.25866777 0.39056143 0.95489824     C
C79   0.20225745 0.353003 0.9856407     C
C80   0.17516641 0.27354252 0.9500997     C
C81   0.20552772 0.23185211 0.88158053     C
C82   0.2598752 0.27141207 0.84883875     C
C83   0.990052 0.18031292 0.04121697     C
C84   0.11243773 0.2381221 0.98348886     C
C85   0.8799423 0.20895346 0.1265136     C
C86   0.8003097 0.19459027 0.13936949     C
C87   0.7984765 0.06869772 0.040851355     C
C88   0.8775525 0.08344903 0.027580023     C
C89   0.91726965 0.1554282 0.068062425     C
C90   0.7575599 0.12608613 0.09446061     C
C91    0.66818 0.11843094 0.09823108     C
Br92  0.17839518 0.11919548 0.8318464    Br
N93   0.042651705 0.23636362 0.087555885     N
N94   0.10299258 0.26444805 0.05927396     N
N95   0.05911125 0.18288234 0.9375593     N
N96   0.99957585 0.15415514 0.965787     N
N97   0.28280208 0.23188527 0.77532685     N
O98   0.3951048 0.340443 0.8097819     O
O99   0.36123273 0.46620733 0.8751155     O
O100  0.6272887 0.17850618 0.13608408     O
O101  0.63168067 0.05433677 0.058862686     O
O102  0.25316685 0.2650138 0.7126954     O
O103  0.33368438 0.16332194 0.7708418     O
loop_
_geom_bond_atom_site_label_1
_geom_bond_atom_site_label_2
_geom_bond_distance
_geom_bond_site_symmetry_2
_ccdc_geom_bond_type
Zn0   Zn1    3.03346   1_554     S
Zn0   O28    2.99740       .     S
Zn0   O31    4.74362   1_554     D
Zn0   N64    3.01649       .     S
Zn0   O100   3.02024       .     S
Zn0   O101   4.16744       .     S
Zn1   Zn0    3.03346   1_556     A
Zn1   O29    3.03453       .     A
Zn1   O30    4.72781   1_556     A
Zn1   N63    2.90820       .     S
Zn1   O98    2.97781       .     A
Zn1   O99    4.38866       .     S
H2    C14    1.08349       .     S
H3    C15    1.08349       .     A
H4    C25    1.08689       .     A
H5    C24    1.08687       .     S
H6    O32    0.98845       .     S
H7    O33    0.98845       .     S
H8    O34    0.99178       .     S
H9    O35    0.99178       .     D
C10   C12    1.47970       .     S
C10   O28    1.29367       .     S
C10   O30    1.29803       .     S
C11   C13    1.47950       .     S
C11   O29    1.29367       .     A
C11   O31    1.29803       .     A
C12   C10    1.47970       .     A
C12   C14    1.40242       .     S
C12   C22    1.41629       .     S
C13   C11    1.47950       .     A
C13   C15    1.40247       .     S
C13   C23    1.41645       .     A
C14   H2     1.08349       .     A
C14   C12    1.40242       .     S
C14   C16    1.39883       .     S
C15   H3     1.08349       .     D
C15   C13    1.40247       .     S
C15   C17    1.39863       .     D
C16   C14    1.39883       .     S
C16   C18    1.40785       .     S
C16   O35    1.38297       .     S
C17   C15    1.39863       .     A
C17   C19    1.40801       .     A
C17   O34    1.38302       .     A
C18   C16    1.40785       .     S
C18   C20    1.41823       .     A
C18   C24    1.47370       .     S
C19   C17    1.40801       .     S
C19   C21    1.41823       .     A
C19   C25    1.47370       .     A
C20   C18    1.41823       .     S
C20   C22    1.40295       .     S
C20   O32    1.38425       .     S
C21   C19    1.41823       .     S
C21   C23    1.40295       .     D
C21   O33    1.38425       .     S
C22   C12    1.41629       .     S
C22   C20    1.40295       .     S
C22   Cl27   1.77018       .     S
C23   C13    1.41645       .     A
C23   C21    1.40295       .     A
C23   Cl26   1.77018       .     A
C24   H5     1.08687       .     S
C24   C18    1.47370       .     S
C24   C25    1.33858       .     A
C25   H4     1.08689       .     S
C25   C19    1.47370       .     A
C25   C24    1.33858       .     A
Cl26  C23    1.77018       .     S
Cl27  C22    1.77018       .     S
O28   Zn0    2.99740       .     D
O28   C10    1.29367       .     S
O29   Zn1    3.03453       .     S
O29   C11    1.29367       .     D
O30   Zn1    4.72781   1_554     S
O30   C10    1.29803       .     S
O31   Zn0    4.74362   1_556     S
O31   C11    1.29803       .     S
O32   H6     0.98845       .     S
O32   C20    1.38425       .     A
O33   H7     0.98845       .     A
O33   C21    1.38425       .     A
O34   H8     0.99178       .     S
O34   C17    1.38302       .     S
O35   H9     0.99178       .     S
O35   C16    1.38297       .     A
H36   N67    1.04519       .     S
H37   N67    1.04556       .     A
H38   N60    1.04519       .     D
H39   N60    1.04556       .     A
H40   C53    1.08479       .     A
H41   C54    1.08478       .     A
H42   N61    1.04436   1_565     A
H43   N61    1.04501       .     S
H44   N62    1.04437       .     S
H45   N62    1.04501       .     S
H46   C58    1.08286       .     A
H47   C57    1.08286   1_554     A
C48   C50    1.41522       .     S
C48   C58    1.40821   1_554     S
C48   N66    1.44345   1_554     A
C49   C51    1.43227       .     S
C49   C53    1.49490       .     S
C49   C59    1.41522       .     S
C50   C48    1.41522       .     S
C50   C52    1.43227       .     D
C50   C54    1.49490       .     S
C51   C49    1.43227       .     S
C51   N61    1.43100   1_565     D
C51   N63    1.37099   1_565     S
C52   C50    1.43227       .     S
C52   N62    1.43100       .     S
C52   N64    1.37099       .     S
C53   H40    1.08479       .     S
C53   C49    1.49490       .     A
C53   O68    1.21980       .     A
C54   H41    1.08478       .     A
C54   C50    1.49490       .     S
C54   O69    1.21978       .     S
C55   C57    1.40666       .     S
C55   N60    1.42917   1_566     A
C55   N63    1.36730   1_565     S
C56   C58    1.40666       .     A
C56   N64    1.36730   1_556     D
C56   N67    1.42917       .     A
C57   H47    1.08286   1_556     A
C57   C55    1.40666       .     A
C57   C59    1.40821       .     A
C58   H46    1.08286       .     S
C58   C48    1.40821   1_556     S
C58   C56    1.40666       .     S
C59   C49    1.41522       .     A
C59   C57    1.40821       .     A
C59   N65    1.44345       .     S
N60   H38    1.04519       .     S
N60   H39    1.04556       .     A
N60   C55    1.42917   1_544     S
N61   H42    1.04436   1_545     S
N61   H43    1.04501       .     S
N61   C51    1.43100   1_545     S
N62   H44    1.04437       .     D
N62   H45    1.04501       .     S
N62   C52    1.43100       .     D
N63   Zn1    2.90820       .     S
N63   C51    1.37099   1_545     S
N63   C55    1.36730   1_545     A
N64   Zn0    3.01649       .     A
N64   C52    1.37099       .     S
N64   C56    1.36730   1_554     S
N65   C59    1.44345       .     A
N65   N66    1.25207       .     A
N66   C48    1.44345   1_556     S
N66   N65    1.25207       .     A
N67   H36    1.04519       .     S
N67   H37    1.04556       .     A
N67   C56    1.42917       .     S
O68   C53    1.21980       .     A
O69   C54    1.21978       .     A
H70   C78    1.08256       .     A
H71   C86    1.08294       .     A
H72   C79    1.08340   1_554     A
H73   C85    1.08299       .     A
H74   C87    1.08296       .     S
H75   C88    1.08319   1_556     S
C76   C77    1.48076       .     A
C76   O98    1.29003       .     A
C76   O99    1.29311       .     S
C77   C76    1.48076       .     A
C77   C78    1.39959       .     A
C77   C82    1.41994       .     S
C78   H70    1.08256       .     A
C78   C77    1.39959       .     A
C78   C79    1.39051       .     S
C79   H72    1.08340   1_556     S
C79   C78    1.39051       .     D
C79   C80    1.40409       .     D
C80   C79    1.40409       .     D
C80   C81    1.41767       .     S
C80   C84    1.47951       .     D
C81   C80    1.41767       .     S
C81   C82    1.40599       .     S
C81   Br92   1.93570       .     A
C82   C77    1.41994       .     A
C82   C81    1.40599       .     S
C82   N97    1.43362       .     S
C83   C89    1.46774       .     A
C83   N93    1.35794   1_655     A
C83   N96    1.35375   1_554     S
C84   C80    1.47951       .     A
C84   N94    1.35967   1_556     S
C84   N95    1.35397       .     A
C85   H73    1.08299       .     S
C85   C86    1.39479       .     A
C85   C89    1.40257       .     A
C86   H71    1.08294       .     A
C86   C85    1.39479       .     A
C86   C90    1.40547       .     A
C87   H74    1.08296       .     A
C87   C88    1.39084       .     S
C87   C90    1.40312       .     S
C88   H75    1.08319   1_554     A
C88   C87    1.39084       .     A
C88   C89    1.40337       .     S
C89   C83    1.46774       .     A
C89   C85    1.40257       .     A
C89   C88    1.40337       .     S
C90   C86    1.40547       .     A
C90   C87    1.40312       .     A
C90   C91    1.47071       .     S
C91   C90    1.47071       .     S
C91   O100   1.26842       .     D
C91   O101   1.27453       .     D
Br92  C81    1.93570       .     D
N93   C83    1.35794   1_455     S
N93   N94    1.33236       .     S
N94   C84    1.35967   1_554     S
N94   N93    1.33236       .     S
N95   C84    1.35397       .     S
N95   N96    1.32619   1_455     S
N96   C83    1.35375   1_556     S
N96   N95    1.32619   1_655     S
N97   C82    1.43362       .     S
N97   O102   1.30119       .     S
N97   O103   1.30068       .     S
O98   Zn1    2.97781       .     S
O98   C76    1.29003       .     S
O99   Zn1    4.38866       .     S
O99   C76    1.29311       .     S
O100  Zn0    3.02024       .     S
O100  C91    1.26842       .     S
O101  Zn0    4.16744       .     S
O101  C91    1.27453       .     S
O102  N97    1.30119       .     S
O103  N97    1.30068       .     S
