data_I
_chemical_name_common  'results/nh3_target_22mmol_v2/cif/sample_13'
_cell_length_a 12.45486
_cell_length_b 12.73661
_cell_length_c 22.25823
_cell_angle_alpha 91.42112
_cell_angle_beta  89.50073
_cell_angle_gamma 87.35150
_space_group_name_H-M_alt      'P 1'


loop_
_space_group_symop_operation_xyz
  'x, y, z' 

loop_
_atom_site_label
_atom_site_fract_x
_atom_site_fract_y
_atom_site_fract_z
_atom_site_type_symbol
Cu0   0.096310705 0.39838904 0.44480562    Cu
Cu1   0.90452325 0.44450644 0.44300336    Cu
H2    0.3041993 0.30806547 0.4984373     H
H3    0.59361786 0.50757736 0.35059068     H
H4    0.74799466 0.556595 0.30850983     H
H5    0.14982247 0.25904784 0.5405181     H
H6    0.006028995 0.3769158 0.3118967     H
H7    0.8918006 0.43873027 0.5371315     H
H8    0.56353956 0.29733092 0.38258645     H
H9    0.33427417 0.5182909 0.46645433     H
C10   0.75036776 0.5125238 0.39163783     C
C11   0.14744937 0.30311903 0.4573901     C
C12   0.6401292 0.49344772 0.3907714     C
C13   0.25768793 0.3221951 0.45825654     C
C14   0.5890653 0.45905665 0.44214678     C
C15   0.30875182 0.3565862 0.4068811     C
C16   0.6492338 0.44259852 0.49416363     C
C17   0.24858332 0.37304434 0.3548643     C
C18   0.7596274 0.4605277 0.49372363     C
C19   0.13818981 0.3551151 0.3553043     C
C20   0.47144717 0.44634005 0.44173706     C
C21   0.42637002 0.36930278 0.40729085     C
I22   0.57656705 0.38741934 0.5737171     I
I23    0.32125 0.4282235 0.27531078     I
N24   0.80859226 0.49655366 0.44280863     N
N25   0.08922491 0.31908914 0.4062193     N
O26   0.8003135 0.55039924 0.34171394     O
O27   0.097503595 0.2652436 0.5073139     O
O28   0.0832357 0.37244198 0.30288082     O
O29   0.8145816 0.4432009 0.5461471     O
O30   0.48668435 0.2968894 0.37190324     O
O31   0.41113275 0.5187534 0.47712466     O
Cu32  0.65278584 0.73254436 0.9490163    Cu
Cu33  0.8476735 0.72450775 0.95852745    Cu
H34   0.7716878 0.7382536 0.7116819     H
H35   0.95180273 0.50631857 0.8460945     H
H36   0.12444079 0.45118126 0.8985152     H
H37   0.21153438 0.40901098 0.83587545     H
H38   0.25731134 0.24209213 0.88375086     H
H39   0.28301585 0.35093588 0.93449306     H
H40   0.16578352 0.27500314 0.9453022     H
H41   0.11345887 0.2715278 0.73623323     H
H42   0.22359574 0.28505313 0.65699124     H
H43   0.22910643 0.4223915 0.6813008     H
H44   0.24576712 0.47110888 0.5744402     H
H45   0.35424292 0.3841703 0.5989121     H
H46   0.2499156 0.33167303 0.55324006     H
H47   0.6204136 0.69084233 0.6489926     H
H48   0.6423054 0.55459934 0.6241431     H
H49   0.6270737 0.607721 0.5179152     H
H50   0.50814617 0.6470847 0.5613974     H
H51   0.60413474 0.7435643 0.5424388     H
C52   0.9302453 0.5254573 0.74996954     C
C53   0.8702099 0.6212153 0.75533015     C
C54   0.8180527 0.6643406 0.70647305     C
C55   0.82332116 0.6128814 0.65085274     C
C56   0.891373 0.5212142 0.64227587     C
C57   0.8667473 0.68159705 0.8109111     C
C58   0.88710546 0.46405837 0.58385956     C
C59   0.9703651 0.47500387 0.8014426     C
C60   0.03220415 0.38125506 0.7960451     C
C61   0.06123805 0.3417374 0.7392708     C
C62   0.03294909 0.39784113 0.6872573     C
C63   0.95125896 0.48010376 0.6920623     C
C64   0.155218 0.38201913 0.87101346     C
C65   0.21925294 0.30787358 0.9112141     C
C66   0.20281327 0.3676328 0.64492726     C
C67   0.2669419 0.39028803 0.5890757     C
C68   0.6550828 0.63777137 0.6126355     C
C69   0.5949025 0.66055125 0.5549123     C
O70   0.85163605 0.5132243 0.5368631     O
O71   0.9109474 0.36392793 0.58166957     O
O72   0.78029495 0.6829621 0.8429455     O
O73   0.9520166 0.7277628 0.8275881     O
O74   0.06826842 0.3287767 0.8461307     O
O75   0.09084606 0.380663 0.63369954     O
O76   0.7652199 0.65560025 0.60387605     O
H77   0.9427898 0.6994962 0.27158645     H
H78   0.821976 0.34837022 0.27392316     H
H79   0.60742795 0.3342062 0.12545078     H
H80   0.5600986 0.24628523 0.2695598     H
H81   0.5280692 0.21553029 0.19228558     H
H82   0.5742237 0.11292366 0.24128032     H
H83   0.7210415 0.16286653 0.17156915     H
H84   0.7522504 0.18491599 0.24908179     H
H85   0.572545 0.48599648 0.069847345     H
H86   0.61916596 0.68249506 0.13887407     H
H87   0.5101704 0.5998761 0.15874967     H
H88   0.5124381 0.662458 0.086800694     H
H89   0.770914 0.8316976 0.11467595     H
H90   0.7588454 0.8700518 0.193047     H
H91   0.8385764 0.9445713 0.14277954     H
H92   0.9526305 0.83256626 0.20726666     H
H93   0.9748116 0.7965998 0.13154957     H
C94   0.8157009 0.48583624 0.21798462     C
C95   0.8756753 0.5498219 0.25588286     C
C96   0.90412074 0.6490296 0.23912178     C
C97   0.88397586 0.6836355 0.18157671     C
C98   0.83111656 0.6158568 0.14077072     C
C99   0.8879166 0.52636635 0.31789637     C
C100  0.841175 0.6292374 0.07542582     C
C101  0.78839296 0.3838583 0.2341436     C
C102  0.7190642 0.3259952 0.19853468     C
C103  0.6679996 0.3749348 0.15027145     C
C104  0.69198734 0.47748747 0.13475698     C
C105  0.7793977 0.5267438 0.16334398     C
C106  0.6997355 0.21267755 0.21200177     C
C107  0.58319443 0.19638892 0.22976762     C
C108  0.56301147 0.62402153 0.121553145     C
C109  0.9137342 0.79517525 0.16791096     C
C110  0.814273 0.8643635 0.15361214     C
N111  0.6211651 0.5329634 0.095167376     N
O112  0.9035484 0.697886 0.054323304     O
O113  0.7944409 0.565518 0.0396743     O
O114  0.8218465 0.5710503 0.35563126     O
O115  0.9629403 0.46183515 0.3336842     O
H116  0.43877408 0.58821255 0.04774773     H
H117  0.40956593 0.6639131 0.109341145     H
H118  0.27544028 0.5560892 0.036422968     H
H119  0.24088015 0.60718036 0.10307598     H
H120  0.39172545 0.84065664 0.10749197     H
H121  0.34421587 0.9088923 0.050099254     H
H122  0.22113875 0.77617353 0.12598467     H
H123  0.19078971 0.8707442 0.07860386     H
C124  0.34454337 0.8382549 0.9361554     C
C125  0.21922886 0.8388066 0.95047474     C
C126  0.36208877 0.6524491 0.9320008     C
C127  0.23432612 0.65393436 0.93311536     C
C128  0.36935472 0.74470955 0.03109932     C
C129  0.24181654 0.722201 0.037086606     C
N130  0.22541818 0.6136973 0.05721879     N
N131  0.39541295 0.8456242 0.060689807     N
N132  0.18748939 0.7907412 0.08394647     N
N133  0.40446857 0.74696803 0.9648551     N
N134  0.18675585 0.7366126 0.97699577     N
N135  0.43361968 0.6649752 0.064228415     N
F136  0.2016102 0.5550951 0.9456831     F
F137  0.35929427 0.8347205 0.87420946     F
F138  0.16375977 0.8567814 0.8979777     F
F139  0.38557068 0.93239635 0.9533232     F
F140  0.19000383  0.92429 0.98686284     F
F141  0.39820302 0.64891154 0.8729078     F
F142  0.19629396 0.67132366 0.8755842     F
F143  0.40243012 0.55929995 0.95473784     F
H144  0.8656525 0.96248835 0.34774253     H
H145  0.87973726 0.99566174 0.10163863     H
H146  0.8153376 0.43051916 0.2117836     H
H147  0.88747406 0.35021374 0.119650036     H
H148  0.073384285 0.5626482 0.21854968     H
H149  0.006559372 0.7674029 0.38559538     H
H150  0.011782885 0.17106281 0.014511415     H
H151  0.80680627 0.10525197 0.39651477     H
C152  0.801932 0.350422 0.3187102     C
C153  0.92276955 0.84501356 0.24955308     C
C154  0.9211301 0.84825885 0.13991109     C
C155  0.83364785 0.34643382 0.21032412     C
C156  0.87348014 0.29997644 0.1572539     C
C157  0.9050932 0.19316944 0.1539463     C
C158  0.8823522 0.12704977 0.20314151     C
C159  0.84928733 0.17699899 0.2594813     C
C160  0.89422905 0.013974564 0.19891721     C
C161  0.8974635 0.95532537 0.25221843     C
C162  0.8703299 0.006848069 0.30710298     C
C163  0.842248 0.11463952 0.3110515     C
C164  0.89711475 0.95694953 0.14328696     C
C165  0.9373344 0.7920667 0.19312842     C
C166  0.826072 0.288449 0.26238784     C
C167  0.940824 0.7956624 0.080458485     C
C168  0.9718216 0.67838395 0.18976772     C
C169  0.93373406 0.7843255 0.30560055     C
C170  0.97734165 0.16026841 0.10281519     C
O171  0.6990891 0.36137995 0.33568266     O
O172  0.8862265 0.39192867 0.3452864     O
O173  0.8563904 0.7556438 0.05339199     O
O174  0.043054342 0.7860842 0.06296812     O
O175  0.92607623 0.6179038 0.15619217     O
O176  0.057102084 0.6408843 0.22495516     O
O177  0.88047826 0.7072154 0.3127184     O
O178  0.0059820414 0.8149517 0.34972796     O
O179  0.05710137 0.102984294 0.111159965     O
O180  0.95648533 0.19835709 0.045488942     O
O181  0.80855566 0.15969831 0.365493     O
H182  0.118005425 0.56786895 0.7945827     H
H183  0.44297612 0.66457915 0.60227376     H
H184  0.6325538 0.66095686 0.5961618     H
H185  0.9525387 0.5462021 0.7456651     H
H186  0.876687 0.69822687 0.70654154     H
H187  0.8566115 0.6044982 0.6459653     H
H188  0.96726394 0.6908554 0.64293164     H
H189  0.28228146 0.5699319 0.5450289     H
H190  0.40203348 0.40355054 0.6136229     H
H191  0.27991214 0.37834597 0.57290953     H
H192  0.39826447 0.41696724 0.5333095     H
H193  0.8115672 0.556746 0.71338546     H
H194  0.9132058 0.5882392 0.6291837     H
H195  0.8099274 0.6745662 0.6006219     H
H196  0.7945547 0.532734 0.59923404     H
H197  0.55968595 0.44227916 0.8307335     H
H198  0.52699876 0.47918737 0.93566024     H
H199  0.40459606 0.43107334 0.9050127     H
H200  0.4203289 0.572319 0.9166135     H
H201  0.28846532 0.53394836 0.8405018     H
C202  0.2620507 0.565364 0.6383715     C
C203  0.09668036 0.5692734 0.6990364     C
C204  0.6059495 0.6001046 0.74412304     C
C205  0.5972068 0.6378453 0.63801056     C
C206  0.48644274 0.6352613 0.6405823     C
C207  0.43416837 0.5971577 0.6912806     C
C208  0.09090213 0.5131263 0.5922224     C
C209  0.6569803 0.63459116 0.80092317     C
C210  0.15792817 0.57055205 0.7511839     C
C211  0.14943434 0.55876625 0.6425583     C
C212  0.6598989 0.6139071 0.68842554     C
C213  0.9181236 0.64369124 0.67320323     C
C214  0.49462202 0.58100843 0.7443209     C
C215  0.35053307 0.42836016 0.5755259     C
C216  0.82503635 0.6006595 0.6251692     C
C217  0.46106648 0.49582243 0.90352184     C
C218  0.32221755 0.58051836 0.6916695     C
C219  0.26991236 0.5705011 0.74777526     C
C220  0.33001965 0.5523681 0.79948384     C
C221  0.4426296 0.54760087 0.79680777     C
N222  0.98262614 0.56454563 0.704073     N
N223  0.31593144 0.53796256 0.58290476     N
N224  0.77517825 0.60877025 0.6843729     N
N225  0.50549096 0.5023347 0.8438857     N
O226  0.044465505 0.4277269 0.6017979     O
O227  0.75448155 0.6078237 0.81118566     O
O228  0.090361424 0.55380076 0.5398103     O
O229  0.60624474 0.7006609 0.8368356     O
loop_
_geom_bond_atom_site_label_1
_geom_bond_atom_site_label_2
_geom_bond_distance
_geom_bond_site_symmetry_2
_ccdc_geom_bond_type
Cu0   Cu1    2.43426   1_455     S
Cu0   N25    1.31609       .     S
Cu0   O115   3.09460   1_455     S
Cu0   O172   3.44555   1_455     S
Cu0   O226   3.55539       .     S
Cu0   O228   2.85856       .     S
Cu1   Cu0    2.43426   1_655     S
Cu1   N24    1.33942       .     S
Cu1   O70    2.32304       .     S
Cu1   O71    3.27716       .     S
Cu1   O114   2.73442       .     S
Cu1   O171   3.68854       .     D
H2    C13    1.08407       .     S
H3    C12    1.08407       .     S
H4    O26    0.99176       .     D
H5    O27    0.99176       .     S
H6    O28    0.97939       .     S
H7    O29    0.97953       .     D
H8    O30    0.98856       .     D
H9    O31    0.98854       .     D
C10   C12    1.40556       .     D
C10   N24    1.36995       .     S
C10   O26    1.37723       .     D
C11   C13    1.40556       .     S
C11   N25    1.36995       .     S
C11   O27    1.37723       .     S
C12   H3     1.08407       .     S
C12   C10    1.40556       .     S
C12   C14    1.39353       .     S
C13   H2     1.08407       .     S
C13   C11    1.40556       .     S
C13   C15    1.39353       .     S
C14   C12    1.39353       .     S
C14   C16    1.39953       .     S
C14   C20    1.48135       .     S
C15   C13    1.39353       .     S
C15   C17    1.39953       .     S
C15   C21    1.48135       .     S
C16   C14    1.39953       .     S
C16   C18    1.40413       .     S
C16   I22    2.13098       .     S
C17   C15    1.39953       .     S
C17   C19    1.40413       .     D
C17   I23    2.13098       .     S
C18   C16    1.40413       .     S
C18   N24    1.38072       .     D
C18   O29    1.37530       .     S
C19   C17    1.40413       .     S
C19   N25    1.38072       .     D
C19   O28    1.37530       .     D
C20   C14    1.48135       .     D
C20   C21    1.37364       .     D
C20   O31    1.38744       .     S
C21   C15    1.48135       .     D
C21   C20    1.37364       .     S
C21   O30    1.38744       .     S
I22   C16    2.13098       .     S
I23   C17    2.13098       .     S
N24   Cu1    1.33942       .     S
N24   C10    1.36995       .     S
N24   C18    1.38072       .     S
N25   Cu0    1.31609       .     S
N25   C11    1.36995       .     S
N25   C19    1.38072       .     S
O26   H4     0.99176       .     S
O26   C10    1.37723       .     S
O27   H5     0.99176       .     S
O27   C11    1.37723       .     S
O28   H6     0.97939       .     S
O28   C19    1.37530       .     S
O29   H7     0.97953       .     S
O29   C18    1.37530       .     S
O30   H8     0.98856       .     S
O30   C21    1.38744       .     S
O31   H9     0.98854       .     S
O31   C20    1.38744       .     D
Cu32  Cu33   2.43601       .     A
Cu32  O72    2.87454       .     A
Cu32  O113   3.41150   1_556     A
Cu32  N133   3.10620       .     S
Cu32  O173   3.47163   1_556     S
Cu32  O229   2.59467       .     S
Cu33  Cu32   2.43601       .     A
Cu33  O73    3.18273       .     A
Cu33  O112   2.27720   1_556     A
Cu33  N134   4.25625   1_655     A
Cu33  O174   3.48214   1_656     S
Cu33  O227   3.78093       .     A
H34   C54    1.08459       .     A
H35   C59    1.08080       .     A
H36   C64    1.11157       .     S
H37   C64    1.11710       .     S
H38   C65    1.11048       .     S
H39   C65    1.11054       .     A
H40   C65    1.10778       .     S
H41   C61    1.08154       .     S
H42   C66    1.11149       .     S
H43   C66    1.11663       .     S
H44   C67    1.10831       .     S
H45   C67    1.11060       .     S
H46   C67    1.10751       .     S
H47   C68    1.11267       .     S
H48   C68    1.11420       .     D
H49   C69    1.11054       .     S
H50   C69    1.11061       .     S
H51   C69    1.11060       .     S
C52   C53    1.40278       .     S
C52   C59    1.41141       .     S
C52   C63    1.41658       .     S
C53   C52    1.40278       .     S
C53   C54    1.38393       .     S
C53   C57    1.43966       .     S
C54   H34    1.08459       .     S
C54   C53    1.38393       .     S
C54   C55    1.38597       .     S
C55   C54    1.38597       .     S
C55   C56    1.41867       .     S
C55   O76    1.38493       .     S
C56   C55    1.41867       .     S
C56   C58    1.47690       .     D
C56   C63    1.43722       .     A
C57   C53    1.43966       .     A
C57   O72    1.28545       .     A
C57   O73    1.29041       .     S
C58   C56    1.47690       .     S
C58   O70    1.30250       .     S
C58   O71    1.29563       .     A
C59   H35    1.08080       .     A
C59   C52    1.41141       .     A
C59   C60    1.39271   1_655     A
C60   C59    1.39271   1_455     S
C60   C61    1.38733       .     A
C60   O74    1.38176       .     A
C61   H41    1.08154       .     A
C61   C60    1.38733       .     S
C61   C62    1.41420       .     S
C62   C61    1.41420       .     S
C62   C63    1.42773   1_455     A
C62   O75    1.39516       .     S
C63   C52    1.41658       .     S
C63   C56    1.43722       .     S
C63   C62    1.42773   1_655     S
C64   H36    1.11157       .     S
C64   H37    1.11710       .     S
C64   C65    1.52096       .     S
C64   O74    1.41388       .     S
C65   H38    1.11048       .     D
C65   H39    1.11054       .     S
C65   H40    1.10778       .     S
C65   C64    1.52096       .     S
C66   H42    1.11149       .     S
C66   H43    1.11663       .     S
C66   C67    1.51276       .     S
C66   O75    1.42178       .     S
C67   H44    1.10831       .     S
C67   H45    1.11060       .     S
C67   H46    1.10751       .     S
C67   C66    1.51276       .     S
C68   H47    1.11267       .     S
C68   H48    1.11420       .     S
C68   C69    1.52050       .     S
C68   O76    1.41336       .     D
C69   H49    1.11054       .     S
C69   H50    1.11061       .     S
C69   H51    1.11060       .     S
C69   C68    1.52050       .     S
O70   Cu1    2.32304       .     S
O70   C58    1.30250       .     S
O71   Cu1    3.27716       .     A
O71   C58    1.29563       .     A
O72   Cu32   2.87454       .     A
O72   C57    1.28545       .     S
O73   Cu33   3.18273       .     S
O73   C57    1.29041       .     S
O74   C60    1.38176       .     A
O74   C64    1.41388       .     A
O75   C62    1.39516       .     A
O75   C66    1.42178       .     A
O76   C55    1.38493       .     A
O76   C68    1.41336       .     S
H77   C96    1.08578       .     A
H78   C101   1.08262       .     D
H79   C103   1.08290       .     S
H80   C107   1.10537       .     S
H81   C107   1.10971       .     A
H82   C107   1.11006       .     A
H83   C106   1.11121       .     S
H84   C106   1.11199       .     S
H85   N111   1.03192       .     S
H86   C108   1.10952       .     S
H87   C108   1.11131       .     S
H88   C108   1.11065       .     S
H89   C110   1.10763       .     S
H90   C110   1.11082       .     S
H91   C110   1.11036       .     S
H92   C109   1.11215       .     S
H93   C109   1.10694       .     S
C94   C95    1.40244       .     S
C94   C101   1.41207       .     S
C94   C105   1.40510       .     S
C95   C94    1.40244       .     S
C95   C96    1.38700       .     D
C95   C99    1.42747       .     S
C96   H77    1.08578       .     S
C96   C95    1.38700       .     S
C96   C97    1.38607       .     S
C97   C96    1.38607       .     S
C97   C98    1.42396       .     S
C97   C109   1.52192       .     A
C98   C97    1.42396       .     A
C98   C100   1.47353       .     A
C98   C105   1.43032       .     S
C99   C95    1.42747       .     S
C99   O114   1.27572       .     S
C99   O115   1.27327       .     A
C100  C98    1.47353       .     A
C100  O112   1.29050       .     A
C100  O113   1.28467       .     A
C101  H78    1.08262       .     A
C101  C94    1.41207       .     S
C101  C102   1.39954       .     A
C102  C101   1.39954       .     D
C102  C103   1.39841       .     S
C102  C106   1.51102       .     S
C103  H79    1.08290       .     A
C103  C102   1.39841       .     A
C103  C104   1.40401       .     S
C104  C103   1.40401       .     S
C104  C105   1.42796       .     S
C104  N111   1.42851       .     S
C105  C94    1.40510       .     S
C105  C98    1.43032       .     S
C105  C104   1.42796       .     S
C106  H83    1.11121       .     S
C106  H84    1.11199       .     S
C106  C102   1.51102       .     S
C106  C107   1.52583       .     S
C107  H80    1.10537       .     S
C107  H81    1.10971       .     S
C107  H82    1.11006       .     S
C107  C106   1.52583       .     S
C108  H86    1.10952       .     S
C108  H87    1.11131       .     S
C108  H88    1.11065       .     S
C108  N111   1.44768       .     S
C109  H92    1.11215       .     S
C109  H93    1.10694       .     S
C109  C97    1.52192       .     S
C109  C110   1.52719       .     S
C110  H89    1.10763       .     S
C110  H90    1.11082       .     S
C110  H91    1.11036       .     S
C110  C109   1.52719       .     S
N111  H85    1.03192       .     S
N111  C104   1.42851       .     S
N111  C108   1.44768       .     S
O112  Cu33   2.27720   1_554     S
O112  C100   1.29050       .     S
O113  Cu32   3.41150   1_554     S
O113  C100   1.28467       .     S
O114  Cu1    2.73442       .     S
O114  C99    1.27572       .     S
O115  Cu0    3.09460   1_655     S
O115  C99    1.27327       .     S
H116  N135   1.03469       .     S
H117  N135   1.04595       .     S
H118  N130   1.03762       .     S
H119  N130   1.04497       .     S
H120  N131   1.04596       .     S
H121  N131   1.03734       .     S
H122  N132   1.04588       .     S
H123  N132   1.03147       .     S
C124  C125   1.58992       .     S
C124  N133   1.51060       .     S
C124  F137   1.38875       .     S
C124  F139   1.37191       .     S
C125  C124   1.58992       .     S
C125  N134   1.51289       .     S
C125  F138   1.38123       .     S
C125  F140   1.37419       .     S
C126  C127   1.59047       .     S
C126  N133   1.51143       .     S
C126  F141   1.38537       .     S
C126  F143   1.37668       .     S
C127  C126   1.59047       .     S
C127  N134   1.51496       .     S
C127  F136   1.37548       .     S
C127  F142   1.38858       .     S
C128  C129   1.63202       .     S
C128  N131   1.48035       .     S
C128  N133   1.53565   1_554     S
C128  N135   1.47921       .     S
C129  C128   1.63202       .     S
C129  N130   1.48579       .     S
C129  N132   1.48181       .     D
C129  N134   1.51969   1_554     S
N130  H118   1.03762       .     D
N130  H119   1.04497       .     S
N130  C129   1.48579       .     D
N131  H120   1.04596       .     S
N131  H121   1.03734       .     S
N131  C128   1.48035       .     S
N132  H122   1.04588       .     A
N132  H123   1.03147       .     A
N132  C129   1.48181       .     S
N133  Cu32   3.10620       .     A
N133  C124   1.51060       .     A
N133  C126   1.51143       .     A
N133  C128   1.53565   1_556     A
N134  Cu33   4.25625   1_455     S
N134  C125   1.51289       .     A
N134  C127   1.51496       .     S
N134  C129   1.51969   1_556     A
N135  H116   1.03469       .     A
N135  H117   1.04595       .     D
N135  C128   1.47921       .     S
F136  C127   1.37548       .     S
F137  C124   1.38875       .     A
F138  C125   1.38123       .     A
F139  C124   1.37191       .     A
F140  C125   1.37419       .     S
F141  C126   1.38537       .     S
F142  C127   1.38858       .     S
F143  C126   1.37668       .     A
H144  C162   1.08089   1_565     A
H145  C164   1.07964       .     A
H146  C155   1.08425       .     S
H147  C156   1.08383       .     S
H148  O176   1.01398       .     A
H149  O178   1.01383       .     S
H150  O180   1.01406   1_455     D
H151  O181   0.99148       .     S
C152  C166   1.48575       .     S
C152  O171   1.33241       .     S
C152  O172   1.33351       .     D
C153  C161   1.42530       .     S
C153  C165   1.41694       .     D
C153  C169   1.48777       .     S
C154  C164   1.40275       .     D
C154  C165   1.41029       .     S
C154  C167   1.48164       .     S
C155  H146   1.08425       .     S
C155  C156   1.38549       .     A
C155  C166   1.39436       .     A
C156  H147   1.08383       .     S
C156  C155   1.38549       .     A
C156  C157   1.39859       .     A
C157  C156   1.39859       .     A
C157  C158   1.43207       .     A
C157  C170   1.48466       .     S
C158  C157   1.43207       .     A
C158  C159   1.44018       .     S
C158  C160   1.44161       .     A
C159  C158   1.44018       .     A
C159  C163   1.41633       .     D
C159  C166   1.43525       .     S
C160  C158   1.44161       .     S
C160  C161   1.41745   1_545     A
C160  C164   1.41924   1_545     A
C161  C153   1.42530       .     A
C161  C160   1.41745   1_565     S
C161  C162   1.40349   1_565     S
C162  H144   1.08089   1_545     S
C162  C161   1.40349   1_545     A
C162  C163   1.40143       .     A
C163  C159   1.41633       .     A
C163  C162   1.40143       .     S
C163  O181   1.38139       .     S
C164  H145   1.07964       .     A
C164  C154   1.40275       .     S
C164  C160   1.41924   1_565     D
C165  C153   1.41694       .     S
C165  C154   1.41029       .     D
C165  C168   1.49104       .     S
C166  C152   1.48575       .     S
C166  C155   1.39436       .     S
C166  C159   1.43525       .     S
C167  C154   1.48164       .     S
C167  O173   1.33190       .     S
C167  O174   1.32752   1_655     S
C168  C165   1.49104       .     S
C168  O175   1.22308       .     S
C168  O176   1.39853   1_655     S
C169  C153   1.48777       .     S
C169  O177   1.22299       .     S
C169  O178   1.39836   1_655     S
C170  C157   1.48466       .     S
C170  O179   1.22336   1_655     A
C170  O180   1.39849       .     A
O171  Cu1    3.68854       .     A
O171  C152   1.33241       .     A
O172  Cu0    3.44555   1_655     A
O172  C152   1.33351       .     A
O173  Cu32   3.47163   1_554     S
O173  C167   1.33190       .     A
O174  Cu33   3.48214   1_454     S
O174  C167   1.32751   1_455     A
O175  C168   1.22308       .     A
O176  H148   1.01398       .     A
O176  C168   1.39853   1_455     S
O177  C169   1.22299       .     A
O178  H149   1.01383       .     A
O178  C169   1.39836   1_455     A
O179  C170   1.22336   1_455     S
O180  H150   1.01406   1_655     A
O180  C170   1.39849       .     S
O181  H151   0.99148       .     S
O181  C163   1.38139       .     A
H182  C210   1.08460       .     S
H183  C206   1.07923       .     S
H184  C205   1.08007       .     A
H185  N222   1.03190       .     S
H186  C213   1.11089       .     S
H187  C213   1.11001       .     S
H188  C213   1.11189       .     S
H189  N223   1.02936       .     S
H190  C215   1.11103       .     S
H191  C215   1.11070       .     S
H192  C215   1.11039       .     S
H193  N224   1.02959       .     S
H194  C216   1.10692       .     D
H195  C216   1.10949       .     S
H196  C216   1.11141       .     D
H197  N225   1.03156       .     S
H198  C217   1.11023       .     S
H199  C217   1.10925       .     S
H200  C217   1.10873       .     S
H201  C220   1.08169       .     S
C202  C211   1.41142       .     S
C202  C218   1.42256       .     S
C202  N223   1.42790       .     S
C203  C210   1.39466       .     S
C203  C211   1.41388       .     S
C203  N222   1.42813   1_455     S
C204  C209   1.48578       .     S
C204  C212   1.42356       .     S
C204  C214   1.41875       .     S
C205  H184   1.08007       .     A
C205  C206   1.38218       .     A
C205  C212   1.40431       .     A
C206  H183   1.07923       .     A
C206  C205   1.38218       .     A
C206  C207   1.40584       .     A
C207  C206   1.40584       .     S
C207  C214   1.41994       .     A
C207  C218   1.41998       .     S
C208  C211   1.46483       .     A
C208  O226   1.27691       .     A
C208  O228   1.28809       .     A
C209  C204   1.48578       .     S
C209  O227   1.27025       .     A
C209  O229   1.28650       .     A
C210  H182   1.08460       .     A
C210  C203   1.39466       .     S
C210  C219   1.39612       .     A
C211  C202   1.41142       .     S
C211  C203   1.41388       .     S
C211  C208   1.46483       .     A
C212  C204   1.42356       .     S
C212  C205   1.40431       .     S
C212  N224   1.43620       .     A
C213  H186   1.11089       .     S
C213  H187   1.11001       .     S
C213  H188   1.11189       .     S
C213  N222   1.45011       .     S
C214  C204   1.41875       .     S
C214  C207   1.41994       .     S
C214  C221   1.41498       .     S
C215  H190   1.11103       .     S
C215  H191   1.11070       .     S
C215  H192   1.11039       .     D
C215  N223   1.44679       .     S
C216  H194   1.10692       .     S
C216  H195   1.10949       .     S
C216  H196   1.11141       .     S
C216  N224   1.45116       .     S
C217  H198   1.11023       .     S
C217  H199   1.10925       .     S
C217  H200   1.10873       .     S
C217  N225   1.43941       .     S
C218  C202   1.42256       .     S
C218  C207   1.41998       .     S
C218  C219   1.41478       .     S
C219  C210   1.39612       .     S
C219  C218   1.41478       .     S
C219  C220   1.39666       .     S
C220  H201   1.08169       .     S
C220  C219   1.39666       .     S
C220  C221   1.40173       .     S
C221  C214   1.41498       .     S
C221  C220   1.40173       .     S
C221  N225   1.43037       .     S
N222  H185   1.03190       .     S
N222  C203   1.42813   1_655     S
N222  C213   1.45011       .     S
N223  H189   1.02936       .     S
N223  C202   1.42790       .     S
N223  C215   1.44679       .     S
N224  H193   1.02959       .     S
N224  C212   1.43620       .     S
N224  C216   1.45116       .     S
N225  H197   1.03156       .     S
N225  C217   1.43941       .     S
N225  C221   1.43037       .     S
O226  Cu0    3.55539       .     S
O226  C208   1.27691       .     S
O227  Cu33   3.78093       .     S
O227  C209   1.27025       .     S
O228  Cu0    2.85856       .     S
O228  C208   1.28809       .     S
O229  Cu32   2.59467       .     S
O229  C209   1.28650       .     S
