data_I
_chemical_name_common  'results/nh3_target_22mmol_v2/cif/sample_2'
_cell_length_a 10.15015
_cell_length_b 15.19325
_cell_length_c 16.54358
_cell_angle_alpha 90.31706
_cell_angle_beta  90.49851
_cell_angle_gamma 98.32269
_space_group_name_H-M_alt      'P 1'


loop_
_space_group_symop_operation_xyz
  'x, y, z' 

loop_
_atom_site_label
_atom_site_fract_x
_atom_site_fract_y
_atom_site_fract_z
_atom_site_type_symbol
Zn0   0.7087338 0.40464455 0.21978469    Zn
Zn1   0.42041454 0.35562938 0.26244307    Zn
H2    0.18527362 0.27514166 0.9415025     H
H3    0.9423739 0.4802312 0.53828835     H
C4    0.8640012  0.39705 0.39941663     C
C5    0.26368922 0.35832715 0.08036542     C
C6    0.51917815 0.43204567 0.913304     C
C7    0.6085277 0.32326972 0.5664639     C
C8    0.45989627 0.4242617 0.9908714     C
C9    0.6677844 0.33108908 0.48890394     C
C10   0.33672285 0.36740044 0.0016561747     C
C11   0.79097193 0.3879643 0.47811344     C
C12   0.27939364 0.31820723 0.9348066     C
C13   0.8482703 0.43715462 0.54497665     C
C14   0.34074232 0.32282206 0.8589702     C
C15   0.78689533 0.4325246 0.620814     C
C16   0.46288106 0.37870926 0.8481052     C
C17   0.66479415 0.37660322 0.6316762     C
C18   0.53384703 0.37813312 0.7715522     C
C19   0.59383696 0.3771551 0.7082293     C
I20   0.6887712 0.53000677 0.8913685     I
I21   0.43898267 0.22526318 0.58841133     I
I22   0.561393 0.4998642 0.08896029     I
I23   0.56623536 0.25554413 0.3907903     I
N24   0.27533165 0.27211744 0.7928946     N
N25   0.8522524 0.48323646 0.6868836     N
O26   0.9970183 0.41652983 0.40370566     O
O27   0.13067813 0.33884797 0.07607877     O
O28   0.7896382 0.38655037 0.3323119     O
O29   0.3380583 0.3688273 0.1474725     O
O30   0.21059568 0.1930875 0.8052121     O
O31   0.26212353 0.3100287 0.7236382     O
O32   0.9166039 0.56241757 0.67460716     O
O33   0.86571956 0.44531238 0.7560949     O
H34   0.13917574 0.30433682 0.25069994     H
H35   0.9503474 0.32483372 0.20832036     H
C36   0.34675652 0.35948306 0.25695843     C
C37   0.7839506 0.394967 0.2293585     C
C38   0.16029869 0.44542933 0.25932172     C
C39   0.017648254 0.4527872 0.2585245     C
C40   0.2057242 0.3667005 0.25439397     C
C41   0.9246428 0.386704 0.23177767     C
O42   0.38378248 0.28409418 0.24392264     O
O43   0.69980717 0.32705477 0.21100649     O
O44   0.43152902 0.4269283 0.27517983     O
O45   0.7460115 0.46998575 0.24218948     O
F46   0.24627623 0.52255625 0.26750848     F
F47   0.9828554 0.5314307 0.28439277     F
H48   0.65115553 0.70954585 0.1363088     H
H49   0.7266261 0.7051007 0.22743718     H
H50   0.880956 0.964239 0.20573519     H
H51   0.8034252 0.9673341 0.114929095     H
C52   0.44215915 0.85572946 0.27729258     C
C53   0.51121694 0.7881316 0.24845552     C
C54   0.63573205 0.8134608 0.21078058     C
C55   0.68936884 0.9046215 0.20293105     C
C56   0.619147 0.97220916 0.23228367     C
C57   0.49521858 0.9463824 0.2692326     C
C58   0.45458275 0.6934461 0.25774595     C
C59   0.6733926 0.06748736 0.2247025     C
N60   0.71678716 0.14286804 0.21853901     N
N61   0.41032848 0.6183372 0.26492012     N
N62    0.70973 0.747284 0.17996357     N
N63   0.8159246 0.92718834 0.16473208     N
F64   0.42500815 0.009325743 0.29779643     F
F65   0.32250348 0.8339214 0.31354246     F
loop_
_geom_bond_atom_site_label_1
_geom_bond_atom_site_label_2
_geom_bond_distance
_geom_bond_site_symmetry_2
_ccdc_geom_bond_type
Zn0   Zn1    3.00463       .     S
Zn0   O26    4.18796       .     S
Zn0   O29    3.89933       .     D
Zn0   O43    1.17725       .     S
Zn0   O45    1.07277       .     S
Zn0   N61    4.80956       .     S
Zn1   Zn0    3.00463       .     A
Zn1   O27    4.22325       .     A
Zn1   O28    3.87437       .     A
Zn1   O42    1.13610       .     S
Zn1   O44    1.09191       .     A
Zn1   N60    4.78053       .     S
H2    C12    1.08385       .     A
H3    C13    1.08378       .     A
C4    C11    1.50090       .     S
C4    O26    1.34087       .     S
C4    O28    1.33274       .     D
C5    C10    1.50109       .     D
C5    O27    1.34081       .     T
C5    O29    1.33281       .     D
C6    C8     1.42031       .     S
C6    C16    1.41144       .     D
C6    I20    2.14131       .     S
C7    C9     1.42011       .     A
C7    C17    1.41149       .     A
C7    I21    2.14140       .     A
C8    C6     1.42031       .     S
C8    C10    1.42624   1_556     A
C8    I22    2.14982   1_556     S
C9    C7     1.42011       .     A
C9    C11    1.42646       .     A
C9    I23    2.14993       .     S
C10   C5     1.50109       .     S
C10   C8     1.42624   1_554     D
C10   C12    1.40501   1_554     S
C11   C4     1.50090       .     D
C11   C9     1.42646       .     S
C11   C13    1.40506       .     S
C12   H2     1.08385       .     S
C12   C10    1.40501   1_556     A
C12   C14    1.40308       .     A
C13   H3     1.08378       .     A
C13   C11    1.40506       .     S
C13   C15    1.40321       .     A
C14   C12    1.40308       .     S
C14   C16    1.41104       .     A
C14   N24    1.43498       .     A
C15   C13    1.40321       .     S
C15   C17    1.41098       .     S
C15   N25    1.43475       .     D
C16   C6     1.41144       .     D
C16   C14    1.41104       .     T
C16   C18    1.46302       .     D
C17   C7     1.41149       .     S
C17   C15    1.41098       .     D
C17   C19    1.46295       .     S
C18   C16    1.46302       .     A
C18   C19    1.21736       .     A
C19   C17    1.46295       .     A
C19   C18    1.21736       .     S
I20   C6     2.14131       .     A
I21   C7     2.14140       .     S
I22   C8     2.14982   1_554     A
I23   C9     2.14993       .     A
N24   C14    1.43498       .     S
N24   O30    1.30063       .     S
N24   O31    1.29980       .     D
N25   C15    1.43475       .     S
N25   O32    1.30103       .     S
N25   O33    1.29965       .     S
O26   Zn0    4.18796       .     S
O26   C4     1.34087       .     D
O27   Zn1    4.22325       .     D
O27   C5     1.34081       .     D
O28   Zn1    3.87437       .     D
O28   C4     1.33274       .     S
O29   Zn0    3.89933       .     S
O29   C5     1.33281       .     S
O30   N24    1.30063       .     S
O31   N24    1.29980       .     S
O32   N25    1.30103       .     S
O33   N25    1.29965       .     S
H34   C40    1.08219       .     S
H35   C41    1.08213       .     S
C36   C40    1.45171       .     D
C36   O42    1.27397       .     D
C36   O44    1.27205       .     D
C37   C41    1.45177       .     D
C37   O43    1.27403       .     S
C37   O45    1.27211       .     S
C38   C39    1.46823       .     S
C38   C40    1.34508       .     S
C38   F46    1.36132       .     S
C39   C38    1.46823       .     S
C39   C41    1.34479   1_455     S
C39   F47    1.36186   1_455     S
C40   H34    1.08219       .     S
C40   C36    1.45171       .     S
C40   C38    1.34508       .     A
C41   H35    1.08213       .     A
C41   C37    1.45177       .     A
C41   C39    1.34479   1_655     T
O42   Zn1    1.13610       .     S
O42   C36    1.27397       .     T
O43   Zn0    1.17725       .     A
O43   C37    1.27403       .     S
O44   Zn1    1.09191       .     A
O44   C36    1.27205       .     A
O45   Zn0    1.07277       .     S
O45   C37    1.27211       .     S
F46   C38    1.36132       .     S
F47   C39    1.36186   1_655     S
H48   N62    1.04550       .     S
H49   N62    1.04501       .     S
H50   N63    1.04553       .     S
H51   N63    1.04552       .     S
C52   C53    1.40802       .     A
C52   C57    1.41186       .     A
C52   F65    1.35752       .     A
C53   C52    1.40802       .     T
C53   C54    1.41755       .     S
C53   C58    1.47924       .     T
C54   C53    1.41755       .     A
C54   C55    1.42003       .     S
C54   N62    1.43338       .     A
C55   C54    1.42003       .     A
C55   C56    1.41799       .     S
C55   N63    1.43389       .     S
C56   C55    1.41799       .     S
C56   C57    1.40821       .     S
C56   C59    1.47880   1_565     S
C57   C52    1.41186       .     S
C57   C56    1.40821       .     S
C57   F64    1.35789   1_565     S
C58   C53    1.47924       .     S
C58   N61    1.17137       .     S
C59   C56    1.47880   1_545     S
C59   N60    1.17137       .     S
N60   Zn1    4.78053       .     S
N60   C59    1.17137       .     S
N61   Zn0    4.80956       .     S
N61   C58    1.17137       .     S
N62   H48    1.04550       .     S
N62   H49    1.04501       .     S
N62   C54    1.43338       .     S
N63   H50    1.04553       .     S
N63   H51    1.04552       .     S
N63   C55    1.43389       .     S
F64   C57    1.35789   1_545     S
F65   C52    1.35752       .     S
