data_I
_chemical_name_common  'results/nh3_target_22mmol_v2/cif/sample_18'
_cell_length_a 12.30174
_cell_length_b 12.95247
_cell_length_c 15.30405
_cell_angle_alpha 89.30569
_cell_angle_beta  102.20770
_cell_angle_gamma 95.73426
_space_group_name_H-M_alt      'P 1'


loop_
_space_group_symop_operation_xyz
  'x, y, z' 

loop_
_atom_site_label
_atom_site_fract_x
_atom_site_fract_y
_atom_site_fract_z
_atom_site_type_symbol
Zn0   0.4489807 0.6140894  0.67067    Zn
Zn1   0.6931926 0.70824313 0.72205216    Zn
H2    0.42998803 0.98473567 0.6326893     H
H3    0.6993988 0.33864862 0.7653967     H
H4    0.76300836 0.98594403 0.7954294     H
H5    0.37245676 0.33745825 0.5925606     H
H6    0.35206303 0.14813724 0.590918     H
H7    0.7797076 0.17531988 0.8037445     H
C8    0.5505046 0.4653089 0.6797988     C
C9    0.5835955 0.8580488 0.70971537     C
C10   0.5947452 0.97171146 0.7138567     C
C11   0.5378421 0.35162768 0.6788253     C
C12   0.42884055 0.18888775 0.6279236     C
C13   0.70317775 0.13448873 0.76625526     C
C14   0.44032022 0.29689732 0.6294364     C
C15   0.69353455 0.026494138 0.7613682     C
C16   0.6240108 0.29706645 0.7267337     C
C17   0.5060989 0.026216436 0.6702794     C
C18   0.61466247 0.18889718 0.72290146     C
C19   0.5158819 0.13436177 0.6736938     C
O20   0.6458425 0.5140982 0.7165067     O
O21   0.48880973 0.80924726 0.671703     O
O22   0.46643096 0.5146818 0.643368     O
O23   0.6682213 0.80866367 0.74484175     O
H24   0.94195485 0.7749347 0.47355905     H
H25   0.8091762 0.7124175 0.4854382     H
H26   0.82360446 0.8490418 0.46043718     H
H27   0.82084495 0.8400235 0.6180435     H
H28   0.95528823 0.88239205 0.6118379     H
H29   0.1980113 0.4056175 0.79674715     H
H30   0.33907416 0.44449016 0.78781074     H
H31   0.3075195 0.42374873 0.895994     H
H32   0.32970157 0.6166126 0.86946297     H
H33   0.1992552 0.5725348 0.8805484     H
H34   0.8542211 0.6066755 0.91340905     H
H35   0.8022543 0.47407943 0.9295978     H
H36   0.94748384 0.50579095 0.92701304     H
H37   0.74342144 0.50708246 0.77189183     H
H38   0.84844047 0.42420352 0.78357506     H
H39   0.29281563 0.7073852 0.47479776     H
H40   0.19969986 0.808134 0.45502627     H
H41   0.34606475 0.8390332 0.45618197     H
H42   0.28942928 0.894696 0.5968957     H
H43   0.39812827 0.8165518 0.6166111     H
H44   0.09863277 0.822161 0.577765     H
H45   0.04312959 0.4942402 0.8007357     H
C46   0.93543565 0.7221936 0.65504473     C
C47   0.09173897 0.6240374 0.72299194     C
C48   0.04988318 0.70179075 0.6650818     C
C49   0.89364535 0.81283575 0.5985552     C
C50   0.865592 0.7854606 0.49866587     C
C51   0.25618032 0.56707436 0.8337162     C
C52   0.2762986 0.45336744 0.82783794     C
C53   0.83306694 0.5051541 0.7967948     C
C54   0.8611662 0.5244057 0.8978445     C
C55   0.30867052 0.8139169 0.5876921     C
C56   0.285339 0.7903373 0.4873718     C
C57   0.12494792 0.7597909 0.62204444     C
C58   0.016237188 0.56059057 0.76149094     C
C59   0.23724864 0.7401982 0.63490665     C
C60   0.9042036 0.57943565 0.74981815     C
C61   0.20886388 0.6129983 0.743472     C
N62   0.8644698 0.66160995 0.69873494     N
N63   0.27893007 0.6641037 0.6930872     N
H64   0.3010555 0.49417424 0.15944724     H
H65   0.8889316 0.6428463 0.24470365     H
H66   0.51856697 0.6565679 0.3865523     H
H67   0.6152076 0.70762897 0.00053075695     H
H68   0.93651396 0.8403178 0.5551707     H
H69   0.083924055 0.8459789 0.69306177     H
H70   0.108312964 0.6903198 0.7880647     H
H71   0.98474276 0.5278797 0.7447264     H
H72   0.83684206 0.5206183 0.607103     H
H73   0.3150982 0.778836 0.8222089     H
H74   0.17122465 0.7990781 0.6855723     H
H75   0.040589508 0.6481937 0.62033355     H
H76   0.053658832 0.476555 0.6926841     H
H77   0.20050396 0.4530739 0.8267703     H
H78   0.08898753 0.4231824 0.014833548     H
H79   0.09649706 0.7463938 0.38018557     H
H80   0.311778 0.43237486 0.38290575     H
H81   0.8399115 0.7657528 0.017199311     H
C82   0.51750964 0.6494909 0.8377871     C
C83   0.57211334 0.58786917 0.23985927     C
C84   0.46319464 0.53779656 0.23846701     C
C85   0.7249497 0.6267791 0.16240332     C
C86   0.3838348 0.53034115 0.15834475     C
C87   0.8003722 0.6328713 0.2444624     C
C88   0.6252196 0.68270665 0.5527938     C
C89   0.54297376 0.6541133 0.00014234922     C
C90   0.6072345 0.6510836 0.39366338     C
C91   0.4695631 0.63636905 0.91863316     C
C92   0.6785721 0.67300904 0.4761867     C
C93   0.3259868 0.56865084 0.99817955     C
C94   0.8384338 0.65933126 0.40668377     C
C95   0.35618904 0.60273516 0.91724676     C
C96   0.7958079 0.6722697 0.48428455     C
C97   0.5216755 0.60875773 0.07854362     C
C98   0.647161 0.62191635 0.32012254     C
C99   0.8750829 0.6804953 0.57213056     C
C100  0.9451773 0.772343 0.5970228     C
C101  0.028968096 0.7756121 0.67475444     C
C102  0.042918563 0.687692 0.72818655     C
C103  0.9728476 0.59630305 0.70406187     C
C104  0.8890237 0.5925366 0.6263145     C
C105  0.2687511 0.61421394 0.83474195     C
C106  0.25906727 0.71199024 0.79415274     C
C107  0.17757154 0.7238731 0.7167977     C
C108  0.40995854 0.5678939 0.0782018     C
C109  0.103845336 0.63889587 0.68010163     C
C110  0.11162336 0.54194826 0.720688     C
C111  0.1944229 0.52911633 0.7970282     C
C112  0.20677742 0.53771013 0.9992837     C
C113  0.9612928 0.667436 0.41299212     C
C114  0.43268713 0.4812162 0.31660694     C
C115  0.77756155 0.64875627 0.08607909     C
C116  0.76310045 0.6373853 0.32393202     C
C117  0.6067684 0.608193 0.15829504     C
O118  0.45405608 0.6177688 0.76067704     O
O119  0.13899244 0.6019788 0.98359925     O
O120  0.17212927 0.43477166 0.016478945     O
O121  0.01710856 0.6036154 0.45587748     O
O122  0.012727857 0.7489645 0.37085626     O
O123  0.5034196 0.43959054 0.36993486     O
O124  0.32215542 0.47298497 0.32769814     O
O125  0.77447265 0.58250475 0.029156921     O
O126  0.68870485 0.71521866 0.6294303     O
O127  0.8266359 0.749575 0.07872409     O
O128  0.6245118 0.6849964 0.8477202     O
O129  0.5182492 0.6479911 0.5423871     O
loop_
_geom_bond_atom_site_label_1
_geom_bond_atom_site_label_2
_geom_bond_distance
_geom_bond_site_symmetry_2
_ccdc_geom_bond_type
Zn0   Zn1    3.06969       .     S
Zn0   O21    2.52590       .     S
Zn0   O22    1.40880       .     S
Zn0   N63    2.34375       .     S
Zn0   O118   1.36683       .     S
Zn0   O129   2.32058       .     A
Zn1   Zn0    3.06969       .     A
Zn1   O20    2.52221       .     A
Zn1   O23    1.42967       .     A
Zn1   N62    2.34716       .     A
Zn1   O126   1.40900       .     D
Zn1   O128   2.26399       .     S
H2    C17    1.08418   1_565     S
H3    C16    1.08448       .     A
H4    C15    1.08290   1_565     D
H5    C14    1.08289       .     A
H6    C12    1.08296       .     S
H7    C13    1.08380       .     S
C8    C11    1.46503       .     A
C8    O20    1.29318       .     A
C8    O22    1.29196       .     A
C9    C10    1.46577       .     A
C9    O21    1.29320       .     S
C9    O23    1.29228       .     S
C10   C9     1.46577       .     S
C10   C15    1.40555   1_565     S
C10   C17    1.40258   1_565     S
C11   C8     1.46503       .     S
C11   C14    1.40451       .     A
C11   C16    1.40325       .     A
C12   H6     1.08296       .     A
C12   C14    1.39197       .     A
C12   C19    1.39925       .     A
C13   H7     1.08380       .     D
C13   C15    1.39353       .     S
C13   C18    1.39965       .     S
C14   H5     1.08289       .     A
C14   C11    1.40451       .     D
C14   C12    1.39197       .     A
C15   H4     1.08290   1_545     S
C15   C10    1.40555   1_545     S
C15   C13    1.39353       .     A
C16   H3     1.08448       .     A
C16   C11    1.40325       .     A
C16   C18    1.39520       .     A
C17   H2     1.08418   1_545     S
C17   C10    1.40258   1_545     S
C17   C19    1.39454       .     S
C18   C13    1.39965       .     S
C18   C16    1.39520       .     S
C18   C19    1.41318       .     S
C19   C12    1.39925       .     S
C19   C17    1.39454       .     S
C19   C18    1.41318       .     S
O20   Zn1    2.52221       .     S
O20   C8     1.29318       .     S
O21   Zn0    2.52590       .     S
O21   C9     1.29320       .     S
O22   Zn0    1.40880       .     S
O22   C8     1.29196       .     S
O23   Zn1    1.42967       .     S
O23   C9     1.29228       .     S
H24   C50    1.10824       .     S
H25   C50    1.10984       .     A
H26   C50    1.11032       .     A
H27   C49    1.09249       .     A
H28   C49    1.10940       .     A
H29   C52    1.10938       .     A
H30   C52    1.09743       .     A
H31   C52    1.11040       .     A
H32   C51    1.10104       .     A
H33   C51    1.11017       .     A
H34   C54    1.11017       .     A
H35   C54    1.11047       .     S
H36   C54    1.11042       .     A
H37   C53    1.09067       .     S
H38   C53    1.11221       .     S
H39   C56    1.11002       .     S
H40   C56    1.11053       .     S
H41   C56    1.11044       .     S
H42   C55    1.11254       .     S
H43   C55    1.09316       .     S
H44   C57    1.07835       .     S
H45   C58    1.08121       .     S
C46   C48    1.43441   1_655     S
C46   C49    1.51595       .     S
C46   N62    1.38644       .     S
C47   C48    1.39779       .     S
C47   C58    1.39726       .     S
C47   C61    1.42961       .     S
C48   C46    1.43441   1_455     S
C48   C47    1.39779       .     S
C48   C57    1.39911       .     S
C49   H27    1.09249       .     S
C49   H28    1.10940       .     S
C49   C46    1.51595       .     S
C49   C50    1.53211       .     S
C50   H24    1.10824       .     S
C50   H25    1.10984       .     S
C50   H26    1.11032       .     S
C50   C49    1.53211       .     S
C51   H32    1.10104       .     S
C51   H33    1.11017       .     S
C51   C52    1.52444       .     S
C51   C61    1.51966       .     A
C52   H29    1.10938       .     A
C52   H30    1.09743       .     A
C52   H31    1.11040       .     A
C52   C51    1.52444       .     A
C53   H37    1.09067       .     A
C53   H38    1.11221       .     A
C53   C54    1.52947       .     A
C53   C60    1.51308       .     A
C54   H34    1.11017       .     A
C54   H35    1.11047       .     S
C54   H36    1.11042       .     A
C54   C53    1.52947       .     S
C55   H42    1.11254       .     S
C55   H43    1.09316       .     S
C55   C56    1.52981       .     S
C55   C59    1.51325       .     S
C56   H39    1.11002       .     S
C56   H40    1.11053       .     S
C56   H41    1.11044       .     S
C56   C55    1.52981       .     S
C57   H44    1.07835       .     S
C57   C48    1.39911       .     S
C57   C59    1.40197       .     S
C58   H45    1.08121       .     S
C58   C47    1.39726       .     S
C58   C60    1.39750   1_455     S
C59   C55    1.51325       .     S
C59   C57    1.40197       .     A
C59   N63    1.38340       .     A
C60   C53    1.51308       .     A
C60   C58    1.39750   1_655     D
C60   N62    1.38027       .     S
C61   C47    1.42961       .     A
C61   C51    1.51966       .     S
C61   N63    1.38938       .     A
N62   Zn1    2.34716       .     S
N62   C46    1.38644       .     S
N62   C60    1.38027       .     A
N63   Zn0    2.34375       .     S
N63   C59    1.38340       .     S
N63   C61    1.38938       .     A
H64   C86    1.08096       .     A
H65   C87    1.08340       .     A
H66   C90    1.08247       .     S
H67   C89    1.07000       .     S
H68   C100   1.08305       .     A
H69   C101   1.08129       .     D
H70   C102   1.08240       .     S
H71   C103   1.08083       .     D
H72   C104   1.08331       .     S
H73   C106   1.08337       .     A
H74   C107   1.08233       .     S
H75   C109   1.08247       .     S
H76   C110   1.08093       .     A
H77   C111   1.08275       .     A
H78   O120   1.01380       .     A
H79   O122   1.01388       .     S
H80   O124   1.01403       .     A
H81   O127   1.00527       .     A
C82   C91    1.48024       .     A
C82   O118   1.31486       .     S
C82   O128   1.32792       .     S
C83   C84    1.42513       .     A
C83   C98    1.41698       .     A
C83   C117   1.41558       .     A
C84   C83    1.42513       .     A
C84   C86    1.39418       .     S
C84   C114   1.49050       .     A
C85   C87    1.39255       .     A
C85   C115   1.46258       .     S
C85   C117   1.43782       .     S
C86   H64    1.08096       .     A
C86   C84    1.39418       .     D
C86   C108   1.40185       .     S
C87   H65    1.08340       .     A
C87   C85    1.39255       .     S
C87   C116   1.39130       .     D
C88   C92    1.47191       .     S
C88   O126   1.31214       .     S
C88   O129   1.32441       .     A
C89   H67    1.07000       .     A
C89   C91    1.38329   1_554     S
C89   C97    1.39231       .     S
C90   H66    1.08247       .     S
C90   C92    1.39139       .     A
C90   C98    1.38990       .     A
C91   C82    1.48024       .     S
C91   C89    1.38329   1_556     A
C91   C95    1.41482       .     A
C92   C88    1.47191       .     D
C92   C90    1.39139       .     S
C92   C96    1.42216       .     S
C93   C95    1.41974       .     A
C93   C108   1.42608   1_556     A
C93   C112   1.48470       .     S
C94   C96    1.41393       .     S
C94   C113   1.48709       .     S
C94   C116   1.41535       .     S
C95   C91    1.41482       .     A
C95   C93    1.41974       .     A
C95   C105   1.49212       .     A
C96   C92    1.42216       .     D
C96   C94    1.41393       .     S
C96   C99    1.48258       .     A
C97   C89    1.39231       .     S
C97   C108   1.42147       .     A
C97   C117   1.43055       .     S
C98   C83    1.41698       .     S
C98   C90    1.38990       .     A
C98   C116   1.40917       .     S
C99   C96    1.48258       .     S
C99   C100   1.40392       .     A
C99   C104   1.40393       .     A
C100  H68    1.08305       .     A
C100  C99    1.40392       .     S
C100  C101   1.39763   1_655     S
C101  H69    1.08129       .     A
C101  C100   1.39763   1_455     D
C101  C102   1.39717       .     S
C102  H70    1.08240       .     D
C102  C101   1.39717       .     S
C102  C103   1.39736   1_455     A
C103  H71    1.08083       .     S
C103  C102   1.39736   1_655     S
C103  C104   1.39782       .     A
C104  H72    1.08331       .     A
C104  C99    1.40393       .     A
C104  C103   1.39782       .     S
C105  C95    1.49212       .     A
C105  C106   1.40845       .     A
C105  C111   1.40532       .     A
C106  H73    1.08337       .     S
C106  C105   1.40845       .     S
C106  C107   1.39812       .     A
C107  H74    1.08233       .     A
C107  C106   1.39812       .     A
C107  C109   1.39625       .     A
C108  C86    1.40185       .     S
C108  C93    1.42608   1_554     A
C108  C97    1.42147       .     A
C109  H75    1.08247       .     S
C109  C107   1.39625       .     S
C109  C110   1.39705       .     A
C110  H76    1.08093       .     D
C110  C109   1.39705       .     S
C110  C111   1.39855       .     A
C111  H77    1.08275       .     S
C111  C105   1.40532       .     D
C111  C110   1.39855       .     S
C112  C93    1.48470       .     S
C112  O119   1.22276       .     A
C112  O120   1.39786   1_556     A
C113  C94    1.48709       .     S
C113  O121   1.22280   1_655     S
C113  O122   1.39780   1_655     S
C114  C84    1.49050       .     A
C114  O123   1.22337       .     A
C114  O124   1.39902       .     S
C115  C85    1.46258       .     A
C115  O125   1.22242       .     A
C115  O127   1.39643       .     D
C116  C87    1.39130       .     S
C116  C94    1.41535       .     S
C116  C98    1.40917       .     A
C117  C83    1.41558       .     A
C117  C85    1.43782       .     S
C117  C97    1.43055       .     S
O118  Zn0    1.36683       .     S
O118  C82    1.31486       .     S
O119  C112   1.22276       .     S
O120  H78    1.01380       .     S
O120  C112   1.39786   1_554     S
O121  C113   1.22280   1_455     S
O122  H79    1.01388       .     S
O122  C113   1.39780   1_455     S
O123  C114   1.22337       .     S
O124  H80    1.01403       .     S
O124  C114   1.39902       .     S
O125  C115   1.22242       .     S
O126  Zn1    1.40900       .     S
O126  C88    1.31214       .     S
O127  H81    1.00527       .     S
O127  C115   1.39643       .     S
O128  Zn1    2.26399       .     S
O128  C82    1.32792       .     S
O129  Zn0    2.32058       .     S
O129  C88    1.32441       .     S
