data_I
_chemical_name_common  'results/nh3_target_22mmol_v2/cif/sample_12'
_cell_length_a 10.29158
_cell_length_b 10.71401
_cell_length_c 12.96037
_cell_angle_alpha 89.99908
_cell_angle_beta  90.48871
_cell_angle_gamma 91.24580
_space_group_name_H-M_alt      'P 1'


loop_
_space_group_symop_operation_xyz
  'x, y, z' 

loop_
_atom_site_label
_atom_site_fract_x
_atom_site_fract_y
_atom_site_fract_z
_atom_site_type_symbol
Zn0   0.30295023 0.023287773 0.40661526    Zn
Zn1   0.17769186 0.7600516 0.4117804    Zn
H2    0.01729702 0.36908934 0.35367945     H
H3    0.25643405 0.52382404 0.4276939     H
H4    0.37042868 0.36210513 0.4121505     H
C5    0.11358297 0.3867535 0.38625515     C
C6    0.16543189 0.50201166 0.38822165     C
C7    0.18095711 0.28153595 0.4314615     C
C8    0.3118232 0.28338182 0.4385794     C
C9    0.09739681 0.60545003 0.34474432     C
C10   0.3840506 0.17855807 0.47495326     C
Br11  0.07037027 0.1458182 0.47859338    Br
O12   0.14698032 0.7142622 0.35668236     O
O13   0.98666966 0.5878478 0.30135563     O
O14   0.49712312 0.19608353 0.51495546     O
O15   0.33681247 0.06966924 0.4596286     O
C16   0.66070366 0.86612546 0.4083988     C
C17   0.79603636 0.88456595 0.45693347     C
Br18  0.80583316 0.9997663 0.56906927    Br
Br19  0.58492506 0.70121557 0.41564882    Br
Br20  0.89215654 0.6964217 0.33233398    Br
Br21  0.6679336 0.117091656 0.36980355    Br
N22   0.58361393 0.95970136 0.3890767     N
N23   0.9014231 0.8241709 0.43238413     N
H24   0.094055876 0.7902168 0.75123006     H
H25   0.44713095 0.06647611 0.8928405     H
H26   0.09228371 0.7108071 0.10550976     H
H27   0.40309376 0.9829395 0.062104464     H
H28   0.399073 0.06840885 0.70777136     H
H29   0.04927835 0.70779926 0.9199342     H
C30   0.26824635 0.86022115 0.20407414     C
C31   0.2992028 0.9255553 0.92652184     C
C32   0.22063848 0.92070824 0.6094241     C
C33   0.24382338 0.9286577 0.7182114     C
C34   0.24913692 0.8490134 0.095094085     C
C35   0.12622066 0.76824343 0.9504596     C
C36   0.1513502 0.76927376 0.0553751     C
C37   0.3255665 0.92361313 0.030721068     C
C38   0.19840246 0.8475588 0.88625216     C
C39   0.17118418 0.85020024 0.78231114     C
C40   0.34217834 0.007831097 0.7577778     C
C41   0.37027076 0.0059370995 0.8623411     C
O42   0.32200146 0.9618281 0.23955035     O
O43   0.22937588 0.7694052 0.26193523     O
O44   0.25835058 0.012204647 0.55157816     O
O45   0.16572501 0.8197818 0.5739631     O
loop_
_geom_bond_atom_site_label_1
_geom_bond_atom_site_label_2
_geom_bond_distance
_geom_bond_site_symmetry_2
_ccdc_geom_bond_type
Zn0   Zn1    3.07633   1_545     S
Zn0   O14    3.03047       .     S
Zn0   O15    0.91041       .     D
Zn0   N22    2.99263   1_545     S
Zn0   O42    2.27445   1_545     S
Zn0   O44    1.94085       .     S
Zn1   Zn0    3.07633   1_565     D
Zn1   O12    0.91647       .     S
Zn1   O13    3.01851   1_455     S
Zn1   N23    2.95384   1_455     S
Zn1   O43    2.01986       .     D
Zn1   O45    2.20245       .     S
H2    C5     1.08661       .     S
H3    C6     1.08433       .     D
H4    C8     1.08347       .     S
C5    H2     1.08661       .     D
C5    C6     1.33470       .     S
C5    C7     1.45667       .     S
C6    H3     1.08433       .     S
C6    C5     1.33470       .     D
C6    C9     1.43630       .     S
C7    C5     1.45667       .     S
C7    C8     1.34891       .     S
C7    Br11   1.92942       .     D
C8    H4     1.08347       .     S
C8    C7     1.34891       .     S
C8    C10    1.43750       .     D
C9    C6     1.43630       .     S
C9    O12    1.27132       .     S
C9    O13    1.27676   1_455     S
C10   C8     1.43750       .     S
C10   O14    1.28001       .     D
C10   O15    1.26907       .     S
Br11  C7     1.92942       .     S
O12   Zn1    0.91647       .     S
O12   C9     1.27132       .     S
O13   Zn1    3.01851   1_655     S
O13   C9     1.27676   1_655     S
O14   Zn0    3.03047       .     D
O14   C10    1.28001       .     S
O15   Zn0    0.91041       .     S
O15   C10    1.26907       .     S
C16   C17    1.53221       .     D
C16   Br19   1.91836       .     S
C16   N22    1.31472       .     S
C17   C16    1.53221       .     S
C17   Br18   1.90731       .     A
C17   N23    1.31632       .     A
Br18  C17    1.90731       .     S
Br19  C16    1.91836       .     A
Br20  N23    1.88577       .     A
Br21  N22    1.89711   1_545     S
N22   Zn0    2.99263   1_565     A
N22   C16    1.31472       .     A
N22   Br21   1.89711   1_565     A
N23   Zn1    2.95384   1_655     S
N23   C17    1.31632       .     A
N23   Br20   1.88577       .     A
H24   C39    1.08523       .     S
H25   C41    1.08398       .     A
H26   C36    1.08364       .     A
H27   C37    1.08558       .     S
H28   C40    1.08354       .     S
H29   C35    1.08412       .     D
C30   C34    1.42908       .     S
C30   O42    1.29307       .     D
C30   O43    1.28736       .     S
C31   C37    1.37542   1_556     S
C31   C38    1.41421       .     S
C31   C41    1.39696   1_565     A
C32   C33    1.43019       .     A
C32   O44    1.28921   1_565     S
C32   O45    1.29186       .     A
C33   C32    1.43019       .     A
C33   C39    1.39243       .     S
C33   C40    1.40034   1_565     A
C34   C30    1.42908       .     A
C34   C36    1.40052       .     A
C34   C37    1.39191       .     S
C35   H29    1.08412       .     A
C35   C36    1.38195   1_556     A
C35   C38    1.39626       .     S
C36   H26    1.08364       .     A
C36   C34    1.40052       .     A
C36   C35    1.38195   1_554     S
C37   H27    1.08558       .     S
C37   C31    1.37542   1_554     D
C37   C34    1.39191       .     S
C38   C31    1.41421       .     S
C38   C35    1.39626       .     S
C38   C39    1.37401       .     S
C39   H24    1.08523       .     S
C39   C33    1.39243       .     S
C39   C38    1.37401       .     S
C40   H28    1.08354       .     S
C40   C33    1.40034   1_545     S
C40   C41    1.38350       .     S
C41   H25    1.08398       .     S
C41   C31    1.39696   1_545     S
C41   C40    1.38350       .     S
O42   Zn0    2.27445   1_565     S
O42   C30    1.29307       .     S
O43   Zn1    2.01986       .     S
O43   C30    1.28736       .     S
O44   Zn0    1.94085       .     S
O44   C32    1.28921   1_545     S
O45   Zn1    2.20245       .     S
O45   C32    1.29186       .     S
