data_I
_chemical_name_common  'results/nh3_target_22mmol_v2/cif/sample_14'
_cell_length_a  8.36035
_cell_length_b 15.60525
_cell_length_c 17.89268
_cell_angle_alpha 101.37556
_cell_angle_beta  93.00795
_cell_angle_gamma 100.54522
_space_group_name_H-M_alt      'P 1'


loop_
_space_group_symop_operation_xyz
  'x, y, z' 

loop_
_atom_site_label
_atom_site_fract_x
_atom_site_fract_y
_atom_site_fract_z
_atom_site_type_symbol
P0    0.58534604 0.69378877 0.05277303     P
P1    0.0062075853 0.31072965 0.2768649     P
P2    0.17961228 0.8284613 0.22419533     P
P3    0.41433954 0.17820203 0.10036134     P
H4    0.26960337 0.36617523 0.4984777     H
H5    0.012310505 0.8370658 0.34124765     H
H6    0.057708144 0.0017893995 0.36973143     H
H7    0.06266856 0.34015584 0.52048594     H
H8    0.40131593 0.2618776 0.97199327     H
H9    0.47316778 0.19912483 0.8420049     H
H10   0.270577 0.14723921 0.85859144     H
H11   0.43842864 0.089162976 0.8630816     H
H12   0.19081533 0.011468123 0.25617892     H
H13   0.89044476 0.7163013 0.14408365     H
H14   0.6990782 0.28635323 0.18559207     H
H15   0.38853723 0.5837551 0.92566884     H
H16   0.19690502 0.4289438 0.39110807     H
H17   0.9956407 0.43424347 0.42069831     H
H18   0.165699 0.45429492 0.5375949     H
H19   0.5945635 0.5640259 0.92282456     H
H20   0.6345997 0.6406514 0.8143863     H
H21   0.24175835 0.010049294 0.4302323     H
H22   0.043779254 0.9664356 0.4581138     H
H23   0.572753 0.20609763 0.97554016     H
H24   0.4814489 0.84281963 0.037547998     H
H25   0.12527752 0.15565833 0.27990234     H
H26   0.42474705 0.65613663 0.8140077     H
H27   0.4691667 0.5456109 0.79112726     H
C28   0.11873186 0.96898204 0.40893778     C
C29   0.6305918 0.05816976 0.12851235     C
C30   0.70243037 0.88301814 0.11231298     C
C31   0.56371075 0.89761007 0.07463108     C
C32   0.5195575 0.9803685 0.08636084     C
C33   0.72808295 0.79501987 0.10972669     C
C34   0.87001485 0.7833425 0.14728548     C
C35   0.8657515 0.20802966 0.216054     C
C36   0.8960271 0.11982225 0.2076632     C
C37   0.7814304 0.04563677 0.16276516     C
C38   0.13282835 0.87495095 0.36935595     C
C39   0.03874874 0.10331138 0.24251254     C
C40   0.07535291 0.018402273 0.23037775     C
C41   0.96266365 0.94405794 0.18990263     C
C42   0.8155065 0.957649 0.15500538     C
C43   0.98970157 0.8560373 0.18521932     C
C44   0.7217787 0.21935952 0.17913656     C
C45   0.09357071 0.3948672 0.41726407     C
C46   0.15134609 0.38860524 0.49813053     C
C47   0.5125541 0.6093453 0.9118529     C
C48   0.50965434 0.61313117 0.827564     C
C49   0.439415 0.19638754 0.9608557     C
C50   0.4029775 0.15536734 0.8758142     C
C51   0.6026432 0.14716575 0.13766606     C
I52   0.20354056 0.8123122 0.45801774     I
I53   0.2691823 0.9589473 0.042819634     I
O54   0.41766196 0.7037998 0.076791175     O
O55   0.6386768 0.60420793 0.06338082     O
O56   0.26635113 0.14412887 0.1420517     O
O57   0.35174185 0.13921076 0.0025534523     O
O58   0.16151047 0.7124475 0.211719     O
O59   0.32065785 0.86114913 0.17815664     O
O60   0.567306 0.69562954 0.9551757     O
O61   0.2567835 0.87921995 0.31905752     O
O62   0.17388618 0.300664 0.2527987     O
O63   0.95287246 0.4003004 0.26625565     O
O64   0.4300487 0.29206133 0.11791747     O
O65   0.033337116 0.30874437 0.37418756     O
P66   0.41477206 0.5691726 0.004787326     P
P67   0.17047738 0.43269673 0.3255157     P
P68   0.80203223 0.39417577 0.8714539     P
P69   0.784801 0.6098907 0.4588233     P
H70   0.6740036 0.22739196 0.9074118     H
H71   0.5460154 0.12008828 0.78953516     H
H72   0.8726627 0.23177242 0.8703914     H
H73   0.70826185 0.080071464 0.8337698     H
H74   0.74037254 0.1267841 0.7497108     H
H75   0.19683625 0.15365767 0.32052833     H
H76   0.6785923 0.76697606 0.46468005     H
H77   0.86153185 0.77397275 0.41437146     H
H78   0.83393824 0.92159736 0.48712167     H
H79   0.013446331 0.88782746 0.5231218     H
H80   0.83300686 0.8809825 0.575024     H
H81   0.14906259 0.12615934 0.21855436     H
H82   0.1262478 0.4508311 0.49337497     H
H83   0.97276676 0.42423847 0.73347795     H
H84   0.45493144 0.55788964 0.836384     H
H85   0.097383395 0.4479142 0.9736604     H
H86   0.49741226 0.54330426 0.35514292     H
H87   0.31452382 0.2157178 0.26199743     H
H88   0.28344175 0.81149083 0.9882255     H
H89   0.27870384 0.85961854 0.0817436     H
H90   0.6148102 0.7447037 0.088382006     H
H91   0.9992749 0.21446909 0.1656501     H
H92   0.15547717 0.2998316 0.1851754     H
H93   0.39564204 0.73281956 0.10405779     H
H94   0.58175385 0.8506899 0.004876256     H
H95   0.5643631 0.88837147 0.104560375     H
C96   0.6798713 0.13207512 0.803707     C
C97   0.28912795 0.50627834 0.91368985     C
C98   0.33495697 0.5198314 0.8406577     C
C99   0.22356893 0.4870913 0.7738149     C
C100  0.06321785 0.44501966 0.78244656     C
C101  0.017748656 0.43211326 0.85476434     C
C102  0.24819629 0.48664707 0.48926267     C
C103  0.29798737 0.4958638 0.41594383     C
C104  0.56990355 0.56900966 0.47587723     C
C105  0.519968 0.56127954 0.5492804     C
C106  0.73987573 0.22395144 0.85484093     C
C107  0.35726887 0.5200822 0.5567464     C
C108  0.30611295 0.50825775 0.63290036     C
C109  0.26909608 0.49918687 0.6970497     C
C110  0.457305 0.53880394 0.41099977     C
C111  0.07528835 0.2484933 0.27631143     C
C112  0.19089983 0.18216747 0.26860583     C
C113  0.49108136 0.7449711 0.065075636     C
C114  0.50410306 0.8402689 0.051867127     C
C115  0.81419456 0.7788048 0.47159854     C
C116  0.87772703 0.87321067 0.5171944     C
C117  0.13402563 0.45733526 0.9182864     C
I118  0.6902812 0.6082485 0.6485837     I
I119  0.85596085 0.1759204 0.3081881     I
N120  0.34514403 0.86068743 0.03394234     N
N121  0.04432758 0.27442923 0.20418774     N
O122  0.5769769 0.5394843 0.9919248     O
O123  0.33119702 0.5457429 0.075585365     O
O124  0.8987295 0.55057955 0.48345432     O
O125  0.8686866 0.7177937 0.51036006     O
O126  0.77883816 0.39264768 0.9681309     O
O127  0.6975292 0.45901272 0.84908533     O
O128  0.45547125 0.68248427 0.9958186     O
O129  0.7089566 0.28980565 0.81567925     O
O130  0.008291025 0.46243414 0.33842126     O
O131  0.2540623 0.45612612 0.2547181     O
O132  0.80641127 0.6092216 0.36217207     O
O133  0.13748135 0.3207472 0.3376931     O
Ba134 0.5403708 0.44982836 0.21469456    Ba
Ba135 0.049363174 0.54380935 0.12864967    Ba
loop_
_geom_bond_atom_site_label_1
_geom_bond_atom_site_label_2
_geom_bond_distance
_geom_bond_site_symmetry_2
_ccdc_geom_bond_type
P0    C33    1.87227       .     S
P0    O54    1.51371       .     S
P0    O55    1.58523       .     S
P0    O60    1.75123   1_554     D
P1    C35    1.90276   1_455     S
P1    O62    1.51412       .     S
P1    O63    1.58510   1_455     S
P1    O65    1.75133       .     S
P2    C43    1.85598   1_455     S
P2    O58    1.75702       .     S
P2    O59    1.54169       .     S
P2    O61    1.75849       .     D
P3    C51    1.85871       .     S
P3    O56    1.54352       .     S
P3    O57    1.75329       .     A
P3    O64    1.72135       .     A
H4    C46    1.10766       .     S
H5    C38    1.10867       .     A
H6    C28    1.10192   1_545     S
H7    C46    1.10749       .     S
H8    C49    1.10955       .     S
H9    C50    1.10911       .     S
H10   C50    1.11072       .     S
H11   C50    1.11060       .     S
H12   C40    1.08066       .     S
H13   C34    1.08156       .     S
H14   C44    1.08149       .     S
H15   C47    1.09995       .     A
H16   C45    1.10481       .     A
H17   C45    1.10734   1_655     A
H18   C46    1.10652       .     A
H19   C47    1.10766       .     A
H20   C48    1.11031       .     A
H21   C28    1.11134   1_545     A
H22   C28    1.10950       .     S
H23   C49    1.10743       .     A
H24   C31    1.07581       .     S
H25   C39    1.07495       .     S
H26   C48    1.11069       .     S
H27   C48    1.10686       .     A
C28   H6     1.10192   1_565     S
C28   H21    1.11134   1_565     S
C28   H22    1.10950       .     A
C28   C38    1.52669       .     A
C29   C32    1.43436   1_545     A
C29   C37    1.43548       .     A
C29   C51    1.42943       .     S
C30   C31    1.38802       .     A
C30   C33    1.42045       .     S
C30   C42    1.41558       .     S
C31   H24    1.07581       .     D
C31   C30    1.38802       .     S
C31   C32    1.38705       .     S
C32   C29    1.43436   1_565     S
C32   C31    1.38705       .     A
C32   I53    2.13782       .     S
C33   P0     1.87227       .     A
C33   C30    1.42045       .     S
C33   C34    1.39162       .     S
C34   H13    1.08156       .     S
C34   C33    1.39162       .     S
C34   C43    1.39941       .     D
C35   P1     1.90276   1_655     S
C35   C36    1.42525       .     S
C35   C44    1.39890       .     S
C36   C35    1.42525       .     S
C36   C37    1.43174       .     S
C36   C39    1.40597   1_655     S
C37   C29    1.43548       .     S
C37   C36    1.43174       .     S
C37   C42    1.43453   1_545     S
C38   H5     1.10867       .     S
C38   C28    1.52669       .     D
C38   I52    2.13224       .     S
C38   O61    1.40875       .     S
C39   H25    1.07495       .     S
C39   C36    1.40597   1_455     S
C39   C40    1.39226       .     S
C40   H12    1.08066       .     S
C40   C39    1.39226       .     S
C40   C41    1.39819   1_445     D
C41   C40    1.39819   1_665     S
C41   C42    1.41972       .     S
C41   C43    1.41954       .     A
C42   C30    1.41558       .     A
C42   C37    1.43453   1_565     S
C42   C41    1.41972       .     A
C43   P2     1.85598   1_655     S
C43   C34    1.39941       .     S
C43   C41    1.41954       .     S
C44   H14    1.08149       .     S
C44   C35    1.39890       .     S
C44   C51    1.41203       .     S
C45   H16    1.10481       .     S
C45   H17    1.10734   1_455     S
C45   C46    1.52844       .     S
C45   O65    1.39886       .     A
C46   H4     1.10766       .     A
C46   H7     1.10749       .     A
C46   H18    1.10652       .     A
C46   C45    1.52844       .     A
C47   H15    1.09995       .     A
C47   H19    1.10766       .     A
C47   C48    1.52001       .     S
C47   O60    1.39602       .     A
C48   H20    1.11031       .     S
C48   H26    1.11069       .     S
C48   H27    1.10686       .     S
C48   C47    1.52001       .     A
C49   H8     1.10955       .     S
C49   H23    1.10743       .     S
C49   C50    1.52107       .     A
C49   O57    1.40379   1_556     A
C50   H9     1.10911       .     A
C50   H10    1.11072       .     A
C50   H11    1.11060       .     S
C50   C49    1.52107       .     A
C51   P3     1.85871       .     S
C51   C29    1.42943       .     S
C51   C44    1.41203       .     D
I52   C38    2.13224       .     S
I53   C32    2.13782       .     S
O54   P0     1.51371       .     S
O54   Ba134  5.28476       .     A
O55   P0     1.58523       .     S
O55   Ba135  3.90371   1_655     A
O56   P3     1.54352       .     S
O57   P3     1.75329       .     S
O57   C49    1.40379   1_554     S
O58   P2     1.75702       .     S
O58   Ba134  5.62588       .     D
O59   P2     1.54169       .     S
O60   P0     1.75123   1_556     S
O60   C47    1.39602       .     S
O61   P2     1.75849       .     S
O61   C38    1.40875       .     S
O62   P1     1.51412       .     S
O62   Ba134  3.67502       .     S
O63   P1     1.58510   1_655     S
O63   Ba134  3.77687       .     S
O63   Ba135  3.66750   1_655     S
O64   P3     1.72135       .     D
O64   Ba135  5.47203       .     S
O65   P1     1.75133       .     S
O65   C45    1.39886       .     S
P66   C97    1.88027   1_554     S
P66   O122   1.52553   1_554     S
P66   O123   1.55199       .     S
P66   O128   1.77924   1_554     S
P67   C103   1.87915       .     S
P67   O130   1.52582       .     S
P67   O131   1.55202       .     D
P67   O133   1.77642       .     S
P68   C101   1.85138   1_655     S
P68   O126   1.75505       .     A
P68   O127   1.54721       .     A
P68   O129   1.75145       .     S
P69   C104   1.85546       .     A
P69   O124   1.54844       .     S
P69   O125   1.75068       .     S
P69   O132   1.74636       .     S
H70   C106   1.11186       .     S
H71   C96    1.10749       .     S
H72   C106   1.10875       .     S
H73   C96    1.11066       .     S
H74   C96    1.10959       .     S
H75   C112   1.10896       .     A
H76   C115   1.11099       .     S
H77   C115   1.11075       .     A
H78   C116   1.11108       .     A
H79   C116   1.11078   1_455     S
H80   C116   1.11034       .     S
H81   C112   1.11118       .     T
H82   C102   1.08295       .     S
H83   C100   1.08320   1_655     S
H84   C98    1.08285       .     A
H85   C117   1.08164       .     A
H86   C110   1.08188       .     A
H87   C112   1.09338       .     S
H88   N120   1.04291   1_556     S
H89   N120   1.04520       .     A
H90   C113   1.09587       .     S
H91   N121   1.04023   1_655     S
H92   N121   1.04303       .     D
H93   C113   1.10196       .     S
H94   C114   1.10788       .     S
H95   C114   1.11299       .     A
C96   H71    1.10749       .     S
C96   H73    1.11066       .     S
C96   H74    1.10959       .     S
C96   C106   1.52168       .     S
C97   P66    1.88027   1_556     S
C97   C98    1.42514       .     A
C97   C117   1.39464       .     S
C98   H84    1.08285       .     S
C98   C97    1.42514       .     S
C98   C99    1.42358       .     S
C99   C98    1.42358       .     S
C99   C100   1.41126       .     S
C99   C109   1.48255       .     S
C100  H83    1.08320   1_455     S
C100  C99    1.41126       .     D
C100  C101   1.40919       .     S
C101  P68    1.85138   1_455     S
C101  C100   1.40919       .     S
C101  C117   1.39974       .     S
C102  H82    1.08295       .     S
C102  C103   1.42296       .     S
C102  C107   1.42250       .     S
C103  P67    1.87915       .     S
C103  C102   1.42296       .     D
C103  C110   1.39284       .     S
C104  P69    1.85546       .     S
C104  C105   1.41965       .     S
C104  C110   1.40105       .     S
C105  C104   1.41965       .     S
C105  C107   1.41924       .     S
C105  I118   2.13552       .     S
C106  H70    1.11186       .     S
C106  H72    1.10875       .     S
C106  C96    1.52168       .     D
C106  O129   1.40578       .     S
C107  C102   1.42250       .     S
C107  C105   1.41924       .     A
C107  C108   1.48496       .     A
C108  C107   1.48496       .     S
C108  C109   1.23232       .     A
C109  C99    1.48255       .     S
C109  C108   1.23232       .     S
C110  H86    1.08188       .     S
C110  C103   1.39284       .     S
C110  C104   1.40105       .     S
C111  C112   1.53245       .     S
C111  I119   2.13885   1_455     S
C111  N121   1.45103       .     S
C111  O133   1.40886       .     A
C112  H75    1.10896       .     S
C112  H81    1.11118       .     A
C112  H87    1.09338       .     A
C112  C111   1.53245       .     S
C113  H90    1.09587       .     S
C113  H93    1.10196       .     T
C113  C114   1.53668       .     S
C113  O128   1.39766   1_554     S
C114  H94    1.10788       .     A
C114  H95    1.11299       .     A
C114  C113   1.53668       .     A
C114  N120   1.45639       .     S
C115  H76    1.11099       .     S
C115  H77    1.11075       .     A
C115  C116   1.52055       .     S
C115  O125   1.40752       .     S
C116  H78    1.11108       .     D
C116  H79    1.11078   1_655     S
C116  H80    1.11034       .     S
C116  C115   1.52055       .     A
C117  H85    1.08164       .     S
C117  C97    1.39464       .     S
C117  C101   1.39974       .     S
I118  C105   2.13552       .     S
I119  C111   2.13885   1_655     S
N120  H88    1.04291   1_554     A
N120  H89    1.04520       .     S
N120  C114   1.45639       .     S
N121  H91    1.04023   1_455     S
N121  H92    1.04303       .     S
N121  C111   1.45103       .     S
O122  P66    1.52553   1_556     S
O122  Ba134  4.48443   1_556     S
O123  P66    1.55199       .     S
O123  Ba135  2.58346       .     D
O124  P69    1.54844       .     S
O125  P69    1.75068       .     S
O125  C115   1.40752       .     S
O126  P68    1.75505       .     S
O126  Ba134  4.92496   1_556     S
O127  P68    1.54721       .     S
O128  P66    1.77924   1_556     S
O128  C113   1.39766   1_556     S
O129  P68    1.75145       .     S
O129  C106   1.40578       .     S
O130  P67    1.52582       .     S
O130  Ba134  4.34521   1_455     S
O131  P67    1.55202       .     S
O131  Ba134  2.54760       .     S
O131  Ba135  3.39982       .     S
O132  P69    1.74636       .     S
O132  Ba135  4.75323   1_655     S
O133  P67    1.77642       .     S
O133  C111   1.40886       .     S
Ba134 O54    5.28476       .     S
Ba134 O58    5.62588       .     S
Ba134 O62    3.67502       .     S
Ba134 O63    3.77687       .     S
Ba134 O122   4.48443   1_554     S
Ba134 O126   4.92496   1_554     S
Ba134 O130   4.34521   1_655     S
Ba134 O131   2.54760       .     S
Ba135 O55    3.90371   1_455     S
Ba135 O63    3.66750   1_455     S
Ba135 O64    5.47203       .     S
Ba135 O123   2.58346       .     S
Ba135 O131   3.39982       .     S
Ba135 O132   4.75323   1_455     S
