data_I
_chemical_name_common  'results/nh3_target_22mmol_v2/cif/sample_9'
_cell_length_a 10.44573
_cell_length_b 11.13269
_cell_length_c 16.68500
_cell_angle_alpha 90.11897
_cell_angle_beta  92.41047
_cell_angle_gamma 89.22560
_space_group_name_H-M_alt      'P 1'


loop_
_space_group_symop_operation_xyz
  'x, y, z' 

loop_
_atom_site_label
_atom_site_fract_x
_atom_site_fract_y
_atom_site_fract_z
_atom_site_type_symbol
Cu0   0.35071927 0.5847655 0.1462071    Cu
Cu1   0.4339658 0.36554116 0.18278265    Cu
H2    0.497908 0.92490536 0.041170143     H
H3    0.27604026 0.7867298 0.40628827     H
H4    0.3378525 0.9870029 0.44873294     H
H5    0.39515823 0.122924566 0.05551778     H
H6    0.2836966 0.6044572 0.3573032     H
H7    0.428815 0.2912755 0.44641212     H
C8    0.5111759 0.7479039 0.14894293     C
C9    0.3315795 0.8088004 0.28294218     C
C10   0.31390738 0.84626967 0.36227974     C
C11   0.34205693 0.96343535 0.38588014     C
C12   0.37052745 0.050119996 0.32865953     C
C13   0.36917803 0.01597035 0.24642085     C
C14   0.38118196 0.89287496 0.22849408     C
C15   0.44227588 0.8618699 0.15699269     C
C16   0.4532256 0.947933 0.09672877     C
C17   0.3993227 0.061840296 0.10603126     C
C18   0.3528324 0.09648609 0.18042226     C
C19   0.27108312 0.20557737 0.18520512     C
C20   0.26409078 0.6990142 0.25288874     C
C21   0.41936615 0.16818881 0.35749483     C
O22   0.6359317 0.7441864 0.15648575     O
O23   0.4450067 0.6542705 0.13148989     O
O24   0.22400224 0.23173666 0.25371403     O
O25   0.23869257 0.2669859 0.12049033     O
O26   0.21456617 0.69952756 0.18525496     O
O27   0.24624537 0.5980955 0.3008098     O
O28   0.4874689 0.22778511 0.3153632     O
O29   0.38980234 0.21018124 0.43367818     O
C30   0.8146176 0.46431392 0.16480048     C
C31   0.95599073 0.4759639 0.16440487     C
N32   0.7014072 0.45557356 0.16495185     N
N33   0.06902659 0.48545188 0.16406348     N
H34   0.33279055 0.58592767 0.4183768     H
H35   0.49576902 0.39217186 0.93289816     H
H36   0.422552 0.26941454 0.58541435     H
H37   0.47878683 0.7881178 0.8131769     H
H38   0.49439538 0.78073025 0.6684563     H
H39   0.5089082 0.29006752 0.72183394     H
C40   0.3970089 0.51090556 0.40903616     C
C41   0.42031783 0.4588264 0.9313295     C
C42   0.5104932 0.3389312 0.42633173     C
C43   0.3132789 0.6314311 0.91507614     C
C44   0.44735646 0.43118626 0.46659005     C
C45   0.4174875 0.56477165 0.8884224     C
C46   0.4563483 0.4541743 0.55281097     C
C47   0.5147288 0.59663725 0.8301601     C
C48   0.5049322 0.36822978 0.6832271     C
C49   0.50874585 0.6985987 0.7023639     C
C50   0.45565438 0.35651758 0.60546046     C
C51   0.5026029 0.7035426 0.7856835     C
C52   0.4812473 0.57098454 0.5829534     C
C53   0.5720948 0.4983937 0.79286987     C
C54   0.5101204 0.58511376 0.66496205     C
C55   0.5362178 0.4819799 0.7125575     C
N56   0.43677637 0.4754504 0.3378037     N
N57   0.33715147 0.46690667 0.9890057     N
N58   0.50939107 0.36703324 0.3485771     N
N59   0.26453674 0.57532376 0.9782323     N
N60   0.54079634 0.22105433 0.4564058     N
N61   0.29710674 0.7574237 0.9031944     N
N62   0.4814996 0.67347646 0.5310741     N
N63   0.66313535 0.4204706 0.835333     N
O64   0.6170176 0.207094 0.51951647     O
O65   0.5148065 0.12821852 0.41149876     O
O66   0.37299645 0.83131355 0.94177747     O
O67   0.22272243 0.7968282 0.84428865     O
O68   0.5805163 0.6938858 0.4886115     O
O69   0.38591725 0.7497219 0.5294401     O
O70   0.7148686 0.4552896 0.9037071     O
O71   0.71448237 0.32896876 0.79944426     O
loop_
_geom_bond_atom_site_label_1
_geom_bond_atom_site_label_2
_geom_bond_distance
_geom_bond_site_symmetry_2
_ccdc_geom_bond_type
Cu0   Cu1    2.64369       .     S
Cu0   O22    3.48624       .     S
Cu0   O23    1.29259       .     D
Cu0   N33    3.18315       .     D
Cu0   N56    3.50049       .     S
Cu0   N59    2.90955   1_554     S
Cu1   Cu0    2.64369       .     S
Cu1   O24    2.95699       .     S
Cu1   O25    2.51439       .     S
Cu1   N32    3.00737       .     S
Cu1   N57    3.52970   1_554     A
Cu1   N58    2.84432       .     A
H2    C16    1.08400       .     A
H3    C10    1.08098       .     S
H4    C11    1.08303       .     A
H5    C17    1.08313       .     A
H6    O27    1.00796       .     A
H7    O29    1.01396       .     A
C8    C15    1.45893       .     A
C8    O22    1.30405       .     S
C8    O23    1.28468       .     A
C9    C10    1.40590       .     S
C9    C14    1.42340       .     A
C9    C20    1.49441       .     D
C10   H3     1.08098       .     S
C10   C9     1.40590       .     A
C10   C11    1.39334       .     S
C11   H4     1.08303       .     S
C11   C10    1.39334       .     D
C11   C12    1.40239   1_565     S
C12   C11    1.40239   1_545     S
C12   C13    1.42263       .     D
C12   C21    1.48805       .     D
C13   C12    1.42263       .     S
C13   C14    1.40711   1_545     S
C13   C18    1.42456       .     S
C14   C9     1.42340       .     S
C14   C13    1.40711   1_565     S
C14   C15    1.41634       .     S
C15   C8     1.45893       .     A
C15   C14    1.41634       .     A
C15   C16    1.39955       .     A
C16   H2     1.08400       .     S
C16   C15    1.39955       .     A
C16   C17    1.39155   1_565     A
C17   H5     1.08313       .     A
C17   C16    1.39155   1_545     A
C17   C18    1.40316       .     A
C18   C13    1.42456       .     S
C18   C17    1.40316       .     A
C18   C19    1.47913       .     S
C19   C18    1.47913       .     A
C19   O24    1.29434       .     D
C19   O25    1.30913       .     S
C20   C9     1.49441       .     A
C20   O26    1.22145       .     S
C20   O27    1.39936       .     S
C21   C12    1.48805       .     D
C21   O28    1.22359       .     S
C21   O29    1.39868       .     S
O22   Cu0    3.48624       .     T
O22   C8     1.30405       .     S
O23   Cu0    1.29259       .     T
O23   C8     1.28468       .     T
O24   Cu1    2.95699       .     S
O24   C19    1.29434       .     T
O25   Cu1    2.51439       .     D
O25   C19    1.30913       .     D
O26   C20    1.22145       .     S
O27   H6     1.00796       .     D
O27   C20    1.39936       .     S
O28   C21    1.22359       .     S
O29   H7     1.01396       .     D
O29   C21    1.39868       .     S
C30   C31    1.48447       .     S
C30   N32    1.18798       .     S
C31   C30    1.48447       .     S
C31   N33    1.18713   1_655     A
N32   Cu1    3.00737       .     A
N32   C30    1.18798       .     A
N33   Cu0    3.18315       .     S
N33   C31    1.18713   1_455     A
H34   C40    1.07932       .     D
H35   C41    1.07472       .     A
H36   C50    1.08154       .     S
H37   C51    1.07718       .     A
H38   C49    1.08161       .     A
H39   C48    1.08302       .     A
C40   H34    1.07932       .     D
C40   C44    1.39098       .     S
C40   N56    1.33269       .     A
C41   H35    1.07472       .     D
C41   C45    1.38032       .     S
C41   N57    1.32541       .     D
C42   C44    1.39895       .     S
C42   N58    1.33470       .     A
C42   N60    1.43256       .     A
C43   C45    1.39675       .     S
C43   N59    1.34769       .     S
C43   N61    1.42378       .     D
C44   C40    1.39098       .     S
C44   C42    1.39895       .     S
C44   C46    1.46001       .     S
C45   C41    1.38032       .     S
C45   C43    1.39675       .     D
C45   C47    1.48217       .     D
C46   C44    1.46001       .     D
C46   C50    1.39944       .     D
C46   C52    1.41671       .     D
C47   C45    1.48217       .     S
C47   C51    1.40530       .     D
C47   C53    1.39758       .     S
C48   H39    1.08302       .     S
C48   C50    1.38221       .     D
C48   C55    1.39466       .     S
C49   H38    1.08161       .     S
C49   C51    1.39530       .     S
C49   C54    1.40812       .     S
C50   H36    1.08154       .     A
C50   C46    1.39944       .     A
C50   C48    1.38221       .     A
C51   H37    1.07718       .     S
C51   C47    1.40530       .     A
C51   C49    1.39530       .     D
C52   C46    1.41671       .     A
C52   C54    1.39774       .     S
C52   N62    1.43372       .     A
C53   C47    1.39758       .     A
C53   C55    1.38855       .     A
C53   N63    1.44307       .     D
C54   C49    1.40812       .     S
C54   C52    1.39774       .     A
C54   C55    1.41433       .     D
C55   C48    1.39466       .     S
C55   C53    1.38855       .     D
C55   C54    1.41433       .     S
N56   Cu0    3.50049       .     A
N56   C40    1.33269       .     A
N56   N58    1.42447       .     S
N57   Cu1    3.52970   1_556     S
N57   C41    1.32541       .     D
N57   N59    1.42447       .     S
N58   Cu1    2.84432       .     S
N58   C42    1.33470       .     S
N58   N56    1.42447       .     S
N59   Cu0    2.90955   1_556     D
N59   C43    1.34769       .     D
N59   N57    1.42447       .     D
N60   C42    1.43256       .     S
N60   O64    1.30142       .     S
N60   O65    1.30020       .     S
N61   C43    1.42378       .     S
N61   O66    1.30077       .     S
N61   O67    1.30019       .     S
N62   C52    1.43372       .     S
N62   O68    1.30078       .     S
N62   O69    1.30115       .     S
N63   C53    1.44307       .     S
N63   O70    1.30220       .     S
N63   O71    1.30140       .     S
O64   N60    1.30142       .     S
O65   N60    1.30020       .     S
O66   N61    1.30077       .     S
O67   N61    1.30019       .     S
O68   N62    1.30078       .     S
O69   N62    1.30115       .     S
O70   N63    1.30220       .     S
O71   N63    1.30140       .     S
