data_I
_chemical_name_common  'results/nh3_target_22mmol_v2/cif/sample_11'
_cell_length_a 10.75727
_cell_length_b 12.64618
_cell_length_c 23.21502
_cell_angle_alpha 85.97665
_cell_angle_beta  83.10043
_cell_angle_gamma 80.51764
_space_group_name_H-M_alt      'P 1'


loop_
_space_group_symop_operation_xyz
  'x, y, z' 

loop_
_atom_site_label
_atom_site_fract_x
_atom_site_fract_y
_atom_site_fract_z
_atom_site_type_symbol
C0    0.51058954 0.3350026 0.66377825     C
C1    0.76182646 0.35828444 0.66668576     C
C2    0.45131642 0.122894324 0.63238907     C
C3    0.96715033 0.17069623 0.6383587     C
C4    0.5418361 0.43587857 0.6694494     C
C5    0.6671024 0.4474869 0.67089903     C
C6    0.7343181 0.2551067 0.6574832     C
C7    0.60543585 0.24316329 0.6559916     C
C8    0.829672 0.16228864 0.65524614     C
C9    0.5745844 0.1386499 0.652294     C
C10   0.7900363 0.062157642 0.67441154     C
C11   0.6611777 0.05021639 0.6729202     C
C12   0.8719082 0.9766014 0.6999969     C
C13   0.621094 0.95335865 0.69709426     C
C14   0.8312406 0.88026464 0.7194948     C
C15   0.7061153 0.8686694 0.7180468     C
H16   0.6730642 0.7957562 0.73625016     H
H17   0.89556146 0.8163749 0.7388251     H
H18   0.41080028 0.3305496 0.6705698     H
H19   0.8537049 0.37159318 0.6756955     H
H20   0.46771032 0.5045324 0.6756932     H
H21   0.6904189 0.5251706 0.67827064     H
H22   0.96479577 0.98412985 0.71031976     H
H23   0.52308846 0.9431972 0.70520794     H
O24   0.4217326 0.028990211 0.6332766     O
O25   0.051937938 0.087390795 0.64056987     O
O26   0.37224874 0.20296745 0.6157133     O
O27   0.002407074 0.26136371 0.623006     O
H28   0.37133458 0.31663176 0.73491055     H
H29   0.23493177 0.6554249 0.47526482     H
H30   0.13956094 0.8407807 0.44566795     H
H31   0.056651786 0.9763867 0.5223978     H
H32   0.0669006 0.92213434 0.627698     H
H33   0.19919488 0.639429 0.7818434     H
H34   0.28881443 0.45232952 0.8116295     H
H35   0.35523406 0.36931148 0.6297705     H
C36   0.32218623 0.43055925 0.6620632     C
C37   0.30964744 0.49083546 0.5392895     C
C38   0.20680536 0.6771868 0.5684499     C
C39   0.16672258 0.7241411 0.67239475     C
C40   0.22096303 0.6158153 0.6888669     C
C41   0.19856213 0.71014726 0.5087934     C
C42   0.119211085 0.80248374 0.7179596     C
C43   0.2687801 0.53809726 0.6450888     C
C44   0.14500435 0.8169776 0.49200374     C
C45   0.26135287 0.5689104 0.5849049     C
C46   0.09849028 0.89346564 0.53530496     C
C47   0.22975627 0.5830913 0.7485347     C
C48   0.10583451 0.86237514  0.59521     C
C49   0.15981717 0.7550806 0.61219454     C
C50   0.28316268 0.4761256 0.7653051     C
C51   0.329752 0.3996127 0.7219896     C
O52   0.41855693 0.42937416 0.54397357     O
O53   0.24077827 0.4847099 0.4993115     O
O54   0.050033364 0.77249706 0.76354694     O
O55   0.1470607 0.8995872 0.7076853     O
H56   0.42681736 0.9418224 0.33406135     H
H57   0.3940354 0.25508544 0.8906469     H
H58   0.41945958 0.9160853 0.43976146     H
H59   0.35778427 0.2911522 0.78860784     H
H60   0.11586611 0.18496624 0.4583522     H
H61   0.9970529 0.17962933 0.82578707     H
H62   0.11248118 0.2010025 0.35334274     H
H63   0.026322762 0.1574466 0.9286224     H
H64   0.08473453 0.43862528 0.053219542     H
H65   0.071305975 0.47100493 0.1282455     H
H66   0.10436837 0.5704593 0.07138916     H
H67   0.2917692 0.4983168 0.11888492     H
H68   0.32115656 0.4698146 0.04559109     H
H69   0.035764668 0.9241597 0.23028232     H
H70   0.9873309 0.9064332 0.16044968     H
H71   0.0070752846 0.7944856 0.21287401     H
H72   0.18050352 0.7811589 0.13508672     H
H73   0.24149323 0.78826874 0.20079452     H
H74   0.59131736 0.29890135 0.12310176     H
H75   0.51390773 0.43145102 0.102010176     H
H76   0.6101457 0.4140572 0.16089676     H
H77   0.37683687 0.43833375 0.19895087     H
H78   0.47076198 0.31536195 0.22056559     H
H79   0.5085017 0.8319432 0.07818852     H
H80   0.4063076 0.74192345 0.11434645     H
H81   0.47721854 0.71973747 0.041439116     H
H82   0.2467291 0.8053053 0.0423197     H
H83   0.36069542 0.8790492 0.0032537207     H
C84   0.35632178 0.9930784 0.36119136     C
C85   0.3055866 0.24147853 0.8768603     C
C86   0.35295033 0.9794899 0.42139268     C
C87   0.28535062 0.26066133 0.81863075     C
C88   0.26555312 0.047476895  0.45755     C
C89   0.17343818 0.23988216 0.7992157     C
C90   0.17972374 0.12787521 0.43230343     C
C91   0.08093739 0.20172477 0.83943295     C
C92   0.18002191 0.13898756 0.37208182     C
C93   0.09914981 0.18622783 0.8981007     C
C94   0.2696176 0.07275313 0.33603948     C
C95   0.21247055 0.20441277 0.9171093     C
C96   0.27069035 0.03607816 0.52080375     C
C97   0.1591057 0.25345907 0.7367338     C
C98   0.23381019 0.08113437 0.0012394857     C
C99   0.29631302 0.18465352 0.24787684     C
C100  0.25694188 0.26385972 0.0085225105     C
C101  0.2592141 0.005221365 0.2417651     C
C102  0.2737219 0.24618626 0.068346396     C
C103  0.25847453 0.01909535 0.18059471     C
C104  0.27282667 0.1405347 0.09348267     C
C105  0.28072923 0.119705126 0.15365621     C
C106  0.26085237 0.056033503 0.058968365     C
C107  0.30776492 0.20062122 0.18691508     C
C108  0.2956666 0.3282517 0.103558026     C
C109  0.24088722 0.93599784 0.14501715     C
C110  0.338162 0.2974818 0.15858397     C
C111  0.26890054 0.9500664 0.08407207     C
C112  0.26535484 0.4479723 0.0866633     C
C113  0.12289286 0.48367086 0.084529586     C
C114  0.18339787 0.83707464 0.16928278     C
C115  0.04533513 0.8678237 0.19496654     C
C116  0.42798278 0.3603744 0.18323806     C
C117  0.5421939 0.37720838 0.13938056     C
C118  0.32184687 0.85335666 0.047432672     C
C119  0.43491125 0.7827058 0.072201416     C
N120  0.2345054 0.18271291 0.9771559     N
N121  0.2747199 0.0880099 0.27371356     N
O122  0.38041398 0.004084363 0.53899723     O
O123  0.0483184 0.28570473 0.71862954     O
O124  0.26094213 0.23534074 0.7007798     O
O125  0.16779023 0.05444835 0.556847     O
O126  0.20135003 0.0059373644 0.96995664     O
O127  0.3009617 0.2664231 0.28149322     O
O128  0.2634247 0.36059856 0.98123544     O
O129  0.24542329 0.91021365 0.2696656     O
O130  0.21310332 0.14516075 0.6282787     O
Zn131 0.32752925 0.017917123 0.6518065    Zn
Zn132 0.11607672 0.10813367 0.5691488    Zn
Zn133 0.09822968 0.1975134 0.6952048    Zn
Zn134 0.31057754 0.25707865 0.5969545    Zn
loop_
_geom_bond_atom_site_label_1
_geom_bond_atom_site_label_2
_geom_bond_distance
_geom_bond_site_symmetry_2
_ccdc_geom_bond_type
C0    C4     1.39040       .     S
C0    C7     1.42030       .     S
C0    H18    1.07627       .     A
C1    C5     1.39040       .     A
C1    C6     1.42030       .     A
C1    H19    1.07627       .     S
C2    C9     1.50292       .     A
C2    O24    1.27728       .     S
C2    O26    1.28024       .     A
C3    C8     1.50292       .     D
C3    O25    1.27728   1_655     D
C3    O27    1.28024   1_655     A
C4    C0     1.39040       .     A
C4    C5     1.38393       .     A
C4    H20    1.08278       .     S
C5    C1     1.39040       .     S
C5    C4     1.38393       .     S
C5    H21    1.08278       .     S
C6    C1     1.42030       .     A
C6    C7     1.42388       .     A
C6    C8     1.42538       .     A
C7    C0     1.42030       .     A
C7    C6     1.42388       .     A
C7    C9     1.42537       .     S
C8    C3     1.50292       .     A
C8    C6     1.42538       .     S
C8    C10    1.42705       .     A
C9    C2     1.50292       .     A
C9    C7     1.42537       .     S
C9    C11    1.42705       .     S
C10   C8     1.42705       .     S
C10   C11    1.42362       .     S
C10   C12    1.42149   1_545     A
C11   C9     1.42705       .     A
C11   C10    1.42362       .     A
C11   C13    1.42149   1_545     S
C12   C10    1.42149   1_565     A
C12   C14    1.38966       .     S
C12   H22    1.07564       .     A
C13   C11    1.42149   1_565     D
C13   C15    1.38966       .     D
C13   H23    1.07565       .     A
C14   C12    1.38966       .     A
C14   C15    1.38237       .     A
C14   H17    1.08280       .     S
C15   C13    1.38966       .     S
C15   C14    1.38237       .     S
C15   H16    1.08280       .     S
H16   C15    1.08280       .     A
H17   C14    1.08280       .     A
H18   C0     1.07627       .     A
H19   C1     1.07627       .     A
H20   C4     1.08278       .     A
H21   C5     1.08278       .     S
H22   C12    1.07564       .     A
H23   C13    1.07565       .     S
O24   C2     1.27728       .     A
O24   Zn131  1.07942       .     A
O25   C3     1.27728   1_455     S
O25   Zn133  2.10338       .     S
O26   C2     1.28024       .     S
O26   Zn134  0.98795       .     S
O27   C3     1.28024   1_455     A
O27   Zn133  2.11536       .     A
H28   C51    1.10666       .     S
H29   C41    1.07287       .     A
H30   C44    1.10228       .     D
H31   C46    1.10670       .     A
H32   C48    1.10235       .     S
H33   C47    1.07362       .     S
H34   C50    1.10230       .     A
H35   C36    1.10229       .     A
C36   H35    1.10229       .     A
C36   C43    1.43407       .     S
C36   C51    1.42671       .     A
C37   C45    1.48718       .     A
C37   O52    1.30661       .     S
C37   O53    1.26901       .     A
C38   C41    1.42687       .     A
C38   C45    1.44253       .     A
C38   C49    1.45263       .     S
C39   C40    1.44224       .     A
C39   C42    1.48729       .     D
C39   C49    1.43192       .     A
C40   C39    1.44224       .     S
C40   C43    1.45308       .     S
C40   C47    1.42727       .     A
C41   H29    1.07287       .     A
C41   C38    1.42687       .     S
C41   C44    1.42571       .     S
C42   C39    1.48729       .     S
C42   O54    1.29037       .     S
C42   O55    1.31055       .     A
C43   C36    1.43407       .     A
C43   C40    1.45308       .     S
C43   C45    1.43195       .     A
C44   H30    1.10228       .     D
C44   C41    1.42571       .     A
C44   C46    1.43270       .     S
C45   C37    1.48718       .     S
C45   C38    1.44253       .     A
C45   C43    1.43195       .     A
C46   H31    1.10670       .     A
C46   C44    1.43270       .     S
C46   C48    1.42629       .     A
C47   H33    1.07362       .     A
C47   C40    1.42727       .     S
C47   C50    1.42662       .     A
C48   H32    1.10235       .     A
C48   C46    1.42629       .     A
C48   C49    1.43321       .     S
C49   C38    1.45263       .     A
C49   C39    1.43192       .     D
C49   C48    1.43321       .     A
C50   H34    1.10230       .     S
C50   C47    1.42662       .     S
C50   C51    1.43327       .     A
C51   H28    1.10666       .     A
C51   C36    1.42671       .     S
C51   C50    1.43327       .     S
O52   C37    1.30661       .     D
O52   Zn134  2.77923       .     S
O53   C37    1.26901       .     S
O53   Zn132  5.25414       .     A
O54   C42    1.29037       .     A
O54   Zn131  5.03337   1_565     S
O55   C42    1.31055       .     S
O55   Zn131  2.78759   1_565     A
H56   C84    1.08281       .     A
H57   C85    1.08267       .     S
H58   C86    1.08303       .     A
H59   C87    1.08278       .     S
H60   C90    1.07558       .     A
H61   C91    1.07558   1_655     S
H62   C92    1.08282       .     D
H63   C93    1.08290       .     D
H64   C113   1.10822       .     S
H65   C113   1.11118       .     S
H66   C113   1.11037       .     S
H67   C112   1.10595       .     S
H68   C112   1.10722       .     S
H69   C115   1.10808       .     S
H70   C115   1.11116   1_655     S
H71   C115   1.11037       .     S
H72   C114   1.10597       .     S
H73   C114   1.10727       .     S
H74   C117   1.11123       .     S
H75   C117   1.10767       .     A
H76   C117   1.11068       .     A
H77   C116   1.10963       .     S
H78   C116   1.10770       .     S
H79   C119   1.11117       .     A
H80   C119   1.10774       .     A
H81   C119   1.11065       .     S
H82   C118   1.10962       .     S
H83   C118   1.10775       .     S
C84   H56    1.08281       .     A
C84   C86    1.39292       .     A
C84   C94    1.40169   1_565     S
C85   H57    1.08267       .     S
C85   C87    1.39316       .     A
C85   C95    1.40161       .     S
C86   H58    1.08303       .     S
C86   C84    1.39292       .     S
C86   C88    1.40464   1_565     S
C87   H59    1.08278       .     S
C87   C85    1.39316       .     A
C87   C89    1.40454       .     S
C88   C86    1.40464   1_545     S
C88   C90    1.40243       .     A
C88   C96    1.47218       .     A
C89   C87    1.40454       .     S
C89   C91    1.40231       .     A
C89   C97    1.47218       .     S
C90   H60    1.07558       .     S
C90   C88    1.40243       .     S
C90   C92    1.39492       .     S
C91   H61    1.07558   1_455     S
C91   C89    1.40231       .     S
C91   C93    1.39491       .     S
C92   H62    1.08282       .     S
C92   C90    1.39492       .     S
C92   C94    1.40329       .     D
C93   H63    1.08290       .     S
C93   C91    1.39491       .     D
C93   C95    1.40338       .     S
C94   C84    1.40169   1_545     A
C94   C92    1.40329       .     A
C94   N121   1.44187       .     S
C95   C85    1.40161       .     S
C95   C93    1.40338       .     A
C95   N120   1.44186       .     A
C96   C88    1.47218       .     S
C96   O122   1.29372       .     A
C96   O125   1.30361       .     S
C97   C89    1.47218       .     A
C97   O123   1.30362       .     S
C97   O124   1.29372       .     D
C98   C106   1.40890       .     S
C98   N120   1.36535   1_554     D
C98   O126   1.34941   1_554     S
C99   C107   1.40891       .     S
C99   N121   1.36551       .     A
C99   O127   1.34926       .     A
C100  C102   1.41941       .     S
C100  N120   1.36758   1_554     S
C100  O128   1.34594   1_554     A
C101  C103   1.41942       .     A
C101  N121   1.36758       .     S
C101  O129   1.34594   1_545     A
C102  C100   1.41941       .     S
C102  C104   1.42100       .     A
C102  C108   1.43078       .     S
C103  C101   1.41942       .     D
C103  C105   1.42126       .     D
C103  C109   1.43078   1_545     S
C104  C102   1.42100       .     S
C104  C105   1.41335       .     S
C104  C106   1.41097       .     S
C105  C103   1.42126       .     S
C105  C104   1.41335       .     S
C105  C107   1.41092       .     S
C106  C98    1.40890       .     S
C106  C104   1.41097       .     S
C106  C111   1.41677   1_545     S
C107  C99    1.40891       .     S
C107  C105   1.41092       .     A
C107  C110   1.41675       .     A
C108  C102   1.43078       .     S
C108  C110   1.41568       .     S
C108  C112   1.52876       .     A
C109  C103   1.43078   1_565     A
C109  C111   1.41568       .     S
C109  C114   1.52876       .     S
C110  C107   1.41675       .     S
C110  C108   1.41568       .     A
C110  C116   1.53092       .     A
C111  C106   1.41677   1_565     S
C111  C109   1.41568       .     S
C111  C118   1.53092       .     A
C112  H67    1.10595       .     S
C112  H68    1.10722       .     S
C112  C108   1.52876       .     S
C112  C113   1.53035       .     S
C113  H64    1.10822       .     S
C113  H65    1.11118       .     A
C113  H66    1.11037       .     S
C113  C112   1.53035       .     S
C114  H72    1.10597       .     A
C114  H73    1.10727       .     A
C114  C109   1.52876       .     S
C114  C115   1.53035       .     A
C115  H69    1.10808       .     S
C115  H70    1.11116   1_455     S
C115  H71    1.11037       .     S
C115  C114   1.53035       .     S
C116  H77    1.10963       .     S
C116  H78    1.10770       .     S
C116  C110   1.53092       .     S
C116  C117   1.53187       .     S
C117  H74    1.11123       .     S
C117  H75    1.10767       .     D
C117  H76    1.11068       .     S
C117  C116   1.53187       .     D
C118  H82    1.10962       .     S
C118  H83    1.10775       .     A
C118  C111   1.53092       .     A
C118  C119   1.53170       .     S
C119  H79    1.11117       .     S
C119  H80    1.10774       .     A
C119  H81    1.11065       .     A
C119  C118   1.53170       .     S
N120  C95    1.44186       .     A
N120  C98    1.36535   1_556     S
N120  C100   1.36758   1_556     A
N121  C94    1.44187       .     S
N121  C99    1.36551       .     D
N121  C101   1.36758       .     S
O122  C96    1.29372       .     S
O122  Zn132  2.95387       .     S
O123  C97    1.30362       .     S
O123  Zn133  1.28278       .     S
O124  C97    1.29372       .     S
O124  Zn134  2.41173       .     S
O125  C96    1.30361       .     S
O125  Zn132  0.84649       .     S
O126  C98    1.34941   1_556     S
O127  C99    1.34926       .     S
O128  C100   1.34594   1_556     S
O129  C101   1.34594   1_565     S
O130  Zn131  1.94638       .     S
O130  Zn132  1.94639       .     S
O130  Zn133  1.94751       .     S
O130  Zn134  1.94751       .     S
Zn131 O24    1.07942       .     S
Zn131 O54    5.03337   1_545     S
Zn131 O55    2.78759   1_545     S
Zn131 O130   1.94638       .     S
Zn132 O53    5.25414       .     S
Zn132 O122   2.95387       .     S
Zn132 O125   0.84649       .     S
Zn132 O130   1.94639       .     S
Zn133 O25    2.10338       .     S
Zn133 O27    2.11536       .     S
Zn133 O123   1.28278       .     S
Zn133 O130   1.94751       .     S
Zn134 O26    0.98795       .     S
Zn134 O52    2.77923       .     S
Zn134 O124   2.41173       .     S
Zn134 O130   1.94751       .     S
