data_I
_chemical_name_common  'results/nh3_target_22mmol_v2/cif/sample_3'
_cell_length_a 15.28054
_cell_length_b 17.53309
_cell_length_c 18.07178
_cell_angle_alpha 89.86906
_cell_angle_beta  88.69342
_cell_angle_gamma 87.33781
_space_group_name_H-M_alt      'P 1'


loop_
_space_group_symop_operation_xyz
  'x, y, z' 

loop_
_atom_site_label
_atom_site_fract_x
_atom_site_fract_y
_atom_site_fract_z
_atom_site_type_symbol
C0    0.8198543 0.28735018 0.9867498     C
C1    0.84451413 0.57781315 0.9818687     C
C2    0.77051276 0.78327876 0.9615073     C
C3    0.8430307 0.08502376 0.050534368     C
C4    0.76934636 0.7042578 0.9619547     C
C5    0.8356725 0.16417694 0.051971912     C
C6    0.8454356 0.660612 0.9798132     C
C7    0.82526594 0.20485961 0.98553467     C
C8    0.9230737 0.69694483 0.9956778     C
C9    0.82339215 0.16621006 0.9177841     C
C10   0.92380244 0.7759867 0.99513507     C
C11   0.847348 0.8989412 0.97998506     C
C12   0.830877 0.087142706 0.9165244     C
C13   0.8474817 0.8186144 0.9784876     C
C14   0.8405196 0.047052503 0.98283994     C
C15   0.845303 0.9666427 0.98143196     C
O16   0.7656312 0.323923 0.9445409     O
O17   0.8976971 0.5410078 0.024708152     O
O18   0.8708788 0.32199264 0.02949369     O
O19   0.7924495 0.5429381 0.93975544     O
F20   0.8290663 0.049669743 0.85088485     F
F21   0.69650966 0.8254109 0.9453554     F
F22   0.85192466 0.045437336 0.11484933     F
F23   0.69348794 0.6708946 0.94679004     F
F24   0.83704287 0.20097518 0.117985606     F
F25   0.99854547 0.65616196 0.010097861     F
F26   0.8177892 0.20492208 0.85292935     F
F27   0.99862564 0.81097543 0.010891557     F
H28   0.9923901 0.4667907 0.6693434     H
H29   0.7035941 0.4295745 0.20649531     H
H30   0.9858032 0.3741776 0.7468019     H
H31   0.6620043 0.33733964 0.6813513     H
H32   0.0007081032 0.5291389 0.28867006     H
H33   0.7004027 0.37630063 0.5543203     H
H34   0.9638985 0.48447654 0.41414207     H
H35   0.64572746 0.456749 0.3124326     H
C36   0.9365443 0.50773984 0.3003166     C
C37   0.726401 0.35801077 0.669246     C
C38   0.9152249 0.48220798 0.37172014     C
C39   0.74861974 0.3802563 0.5969334     C
C40   0.83128357 0.45493633 0.38740674     C
C41   0.8322563 0.40795273 0.58098054     C
C42   0.77074957 0.4542495 0.3301276     C
C43   0.891506 0.41244215 0.6388632     C
C44   0.79649913 0.47771883 0.25754476     C
C45   0.8675843 0.3858509 0.7108292     C
N46   0.8776868 0.5052269 0.24513434     N
N47   0.78529686 0.3612746 0.7243724     N
N48   0.8038113 0.4293591 0.45949304     N
N49   0.85950184 0.43332696 0.5087934     N
O50   0.9709615 0.44410533 0.62347007     O
O51   0.74202156 0.47286886 0.19823632     O
O52   0.9257743 0.38272172 0.7678703     O
O53   0.6871902 0.43198055 0.34735373     O
Zn54  0.9112568 0.43637714 0.0313493    Zn
Zn55  0.754237 0.42747667 0.93566304    Zn
H56   0.47302136 0.32618842 0.9242388     H
H57   0.18039767 0.48769206 0.029932141     H
H58   0.33347145 0.27405724 0.8917543     H
H59   0.31562483 0.5346263 0.066639066     H
H60   0.55894953 0.38328552 0.123404026     H
H61   0.09622259 0.43949023 0.83362716     H
C62   0.64433223 0.40484276 0.9578817     C
C63   0.013545468 0.4324364 0.002287507     C
C64   0.5730154 0.4108477 0.0057457685     C
C65   0.4833613 0.4275815 0.9895984     C
C66   0.16659553 0.38597614 0.9655748     C
C67   0.30012017 0.31983086 0.923045     C
C68   0.34945694 0.4902197 0.034020185     C
C69   0.20905651 0.3252827 0.92629874     C
C70   0.43952492 0.48841596 0.027545214     C
C71   0.21365073 0.43864277 0.0033797026     C
C72   0.07787506 0.40946952 0.950655     C
C73   0.43795747 0.372833 0.9527965     C
C74   0.30345902 0.43424803 0.9994264     C
C75   0.34745052 0.3754568 0.9577247     C
C76   0.6000985 0.39585254 0.075959206     C
C77   0.055888224 0.440332 0.88338375     C
Br78  0.14500932 0.25262463 0.87271136    Br
Br79  0.6369986 0.37002158 0.8583355    Br
Br80  0.031333458 0.4341869 0.10694492    Br
Br81  0.5004263 0.5691266 0.072570324    Br
N82   0.9786899 0.47739238 0.89248455     N
N83   0.7156522 0.39748827 0.9998289     N
N84   0.9497427 0.47057536 0.9654233     N
N85   0.68670493 0.39067128 0.072767735     N
loop_
_geom_bond_atom_site_label_1
_geom_bond_atom_site_label_2
_geom_bond_distance
_geom_bond_site_symmetry_2
_ccdc_geom_bond_type
C0    C7     1.44503       .     D
C0    O16    1.28716       .     S
C0    O18    1.28340   1_556     S
C1    C6     1.45282       .     A
C1    O17    1.28604   1_556     A
C1    O19    1.28879       .     S
C2    C4     1.38643       .     S
C2    C13    1.39510       .     A
C2    F21    1.35871       .     A
C3    C5     1.38739       .     S
C3    C14    1.39626   1_554     A
C3    F22    1.35863       .     S
C4    C2     1.38643       .     A
C4    C6     1.40532       .     S
C4    F23    1.35615       .     T
C5    C3     1.38739       .     S
C5    C7     1.40352   1_554     S
C5    F24    1.35861       .     A
C6    C1     1.45282       .     A
C6    C4     1.40532       .     S
C6    C8     1.40783       .     A
C7    C0     1.44503       .     A
C7    C5     1.40352   1_556     S
C7    C9     1.40225       .     A
C8    C6     1.40783       .     A
C8    C10    1.38642       .     S
C8    F25    1.35847   1_556     S
C9    C7     1.40225       .     D
C9    C12    1.38590       .     S
C9    F26    1.35545       .     D
C10   C8     1.38642       .     S
C10   C13    1.39398       .     S
C10   F27    1.35847   1_556     A
C11   C13    1.40860       .     A
C11   C15    1.18631       .     S
C12   C9     1.38590       .     S
C12   C14    1.39522       .     A
C12   F20    1.35879       .     A
C13   C2     1.39510       .     S
C13   C10    1.39398       .     A
C13   C11    1.40860       .     S
C14   C3     1.39626   1_556     A
C14   C12    1.39522       .     S
C14   C15    1.40859   1_545     T
C15   C11    1.18631       .     S
C15   C14    1.40859   1_565     S
O16   C0     1.28716       .     A
O16   Zn55   1.82294       .     A
O17   C1     1.28604   1_554     S
O17   Zn54   1.84053       .     A
O18   C0     1.28340   1_554     A
O18   Zn54   2.12605       .     S
O19   C1     1.28879       .     A
O19   Zn55   2.13473       .     A
F20   C12    1.35879       .     S
F21   C2     1.35871       .     S
F22   C3     1.35863       .     D
F23   C4     1.35615       .     S
F24   C5     1.35861       .     S
F25   C8     1.35847   1_554     S
F26   C9     1.35545       .     S
F27   C10    1.35847   1_554     S
H28   O50    0.98928       .     S
H29   O51    0.99004       .     S
H30   O52    0.99014       .     A
H31   C37    1.08187       .     A
H32   C36    1.08202   1_455     A
H33   C39    1.08239       .     A
H34   C38    1.08231       .     A
H35   O53    0.98980       .     A
C36   H32    1.08202   1_655     S
C36   C38    1.40120       .     D
C36   N46    1.36018       .     A
C37   H31    1.08187       .     A
C37   C39    1.40175       .     A
C37   N47    1.36074       .     S
C38   H34    1.08231       .     A
C38   C36    1.40120       .     A
C38   C40    1.41209       .     S
C39   H33    1.08239       .     A
C39   C37    1.40175       .     S
C39   C41    1.41154       .     S
C40   C38    1.41209       .     S
C40   C42    1.40429       .     S
C40   N48    1.43677       .     S
C41   C39    1.41154       .     S
C41   C43    1.40367       .     S
C41   N49    1.43628       .     S
C42   C40    1.40429       .     S
C42   C44    1.42609       .     S
C42   O53    1.38105       .     S
C43   C41    1.40367       .     A
C43   C45    1.42611       .     A
C43   O50    1.38064       .     A
C44   C42    1.42609       .     A
C44   N46    1.36542       .     A
C44   O51    1.37719       .     A
C45   C43    1.42611       .     S
C45   N47    1.36471       .     D
C45   O52    1.37596       .     A
N46   C36    1.36018       .     A
N46   C44    1.36542       .     A
N46   Zn54   4.06451       .     S
N47   C37    1.36074       .     A
N47   C45    1.36471       .     A
N47   Zn55   4.00489       .     S
N48   C40    1.43677       .     A
N48   N49    1.25026       .     S
N49   C41    1.43628       .     S
N49   N48    1.25026       .     S
O50   H28    0.98928       .     S
O50   C43    1.38064       .     S
O51   H29    0.99004       .     S
O51   C44    1.37719       .     S
O52   H30    0.99014       .     S
O52   C45    1.37596       .     D
O53   H35    0.98980       .     S
O53   C42    1.38105       .     S
Zn54  O17    1.84053       .     D
Zn54  O18    2.12605       .     S
Zn54  N46    4.06451       .     S
Zn54  Zn55   2.99944   1_554     S
Zn54  N83    3.16100   1_554     S
Zn54  N85    3.62100       .     S
Zn55  O16    1.82294       .     A
Zn55  O19    2.13473       .     A
Zn55  N47    4.00489       .     A
Zn55  Zn54   2.99944   1_556     A
Zn55  N82    3.64579       .     A
Zn55  N84    3.17330       .     A
H56   C73    1.08207       .     S
H57   C71    1.08545       .     A
H58   C67    1.08375       .     S
H59   C68    1.08248       .     A
H60   C76    1.08004       .     S
H61   C77    1.07822       .     A
C62   C64    1.37609   1_556     A
C62   Br79   1.90845       .     S
C62   N83    1.34281       .     A
C63   C72    1.38644   1_554     S
C63   Br80   1.91742       .     S
C63   N84    1.34481   1_454     D
C64   C62    1.37609   1_554     S
C64   C65    1.42427   1_554     D
C64   C76    1.36483       .     S
C65   C64    1.42427   1_556     S
C65   C70    1.40451   1_556     S
C65   C73    1.38958       .     S
C66   C69    1.40552       .     D
C66   C71    1.38687   1_556     S
C66   C72    1.42989       .     S
C67   H58    1.08375       .     D
C67   C69    1.39026       .     S
C67   C75    1.39858       .     S
C68   H59    1.08248       .     S
C68   C70    1.37749       .     S
C68   C74    1.39099   1_554     S
C69   C66    1.40552       .     A
C69   C67    1.39026       .     A
C69   Br78   1.91916       .     A
C70   C65    1.40451   1_554     A
C70   C68    1.37749       .     A
C70   Br81   1.92166       .     A
C71   H57    1.08545       .     S
C71   C66    1.38687   1_554     A
C71   C74    1.37114   1_554     S
C72   C63    1.38644   1_556     A
C72   C66    1.42989       .     S
C72   C77    1.37199       .     A
C73   H56    1.08207       .     A
C73   C65    1.38958       .     S
C73   C75    1.38247       .     A
C74   C68    1.39099   1_556     S
C74   C71    1.37114   1_556     S
C74   C75    1.41366       .     D
C75   C67    1.39858       .     S
C75   C73    1.38247       .     D
C75   C74    1.41366       .     S
C76   H60    1.08004       .     S
C76   C64    1.36483       .     S
C76   N85    1.32224       .     S
C77   H61    1.07822       .     S
C77   C72    1.37199       .     S
C77   N82    1.32712   1_455     S
Br78  C69    1.91916       .     S
Br79  C62    1.90845       .     S
Br80  C63    1.91742       .     S
Br81  C70    1.92166       .     S
N82   Zn55   3.64579       .     S
N82   C77    1.32712   1_655     S
N82   N84    1.38745       .     S
N83   Zn54   3.16100   1_556     S
N83   C62    1.34281       .     S
N83   N85    1.38745   1_556     S
N84   Zn55   3.17330       .     S
N84   C63    1.34481   1_656     S
N84   N82    1.38745       .     S
N85   Zn54   3.62100       .     S
N85   C76    1.32224       .     S
N85   N83    1.38745   1_554     S
