data_I
_chemical_name_common  'results/nh3_target_22mmol_v2/cif/sample_15'
_cell_length_a 10.97727
_cell_length_b 14.01564
_cell_length_c 17.65779
_cell_angle_alpha 87.94822
_cell_angle_beta  89.53699
_cell_angle_gamma 86.75232
_space_group_name_H-M_alt      'P 1'


loop_
_space_group_symop_operation_xyz
  'x, y, z' 

loop_
_atom_site_label
_atom_site_fract_x
_atom_site_fract_y
_atom_site_fract_z
_atom_site_type_symbol
Cu0   0.47890002 0.80766666 0.4603607    Cu
Cu1   0.7224382 0.8024874 0.47973967    Cu
C2    0.0029742518 0.84474975 0.5041349     C
C3    0.31296825 0.74444085 0.38879886     C
C4    0.9008751 0.8743952 0.55584455     C
C5    0.18817791 0.8723009 0.46520394     C
C6    0.13242666 0.8330671 0.53946614     C
C7    0.017420117 0.7421265 0.474741     C
C8    0.0755725 0.7796253 0.40046784     C
C9    0.14536762 0.7304559 0.5105493     C
C10   0.060605634 0.88272995 0.42884934     C
C11   0.20379601 0.76905876 0.43603304     C
H12   0.062281296 0.55776453 0.6459836     H
H13   0.029653778 0.96175057 0.24219696     H
H14   0.8403411 0.5538274 0.3955478     H
H15   0.8786284 0.6777258 0.25959918     H
H16   0.49110833 0.95756954 0.5132082     H
H17   0.16690578 0.011069536 0.6885958     H
O18   0.13241184 0.99221915 0.64003265     O
O19   0.28956363 0.70624685 0.32411307     O
O20   0.8095317 0.817842 0.5578014     O
O21   0.38849258 0.8126682 0.3860751     O
O22   0.93963087 0.9001649 0.6211705     O
O23   0.28222427 0.5767452 0.53181785     O
O24   0.22484578 0.6679818 0.64298135     O
O25   0.06182874 0.56957954 0.59030914     O
O26   0.9108254 0.026593208 0.3969803     O
O27   0.12077944 0.034746766 0.34709358     O
O28   0.9806963 0.9284133 0.28127503     O
O29   0.8511578 0.62611854 0.5451965     O
O30   0.7830675 0.72264117 0.43514004     O
O31   0.9207999 0.5743823 0.4114369     O
O32   0.098889634 0.77590185 0.24444175     O
O33   0.087122075 0.62336326 0.31284305     O
O34   0.8896304 0.72722554 0.29720888     O
O35   0.33584422 0.004158497 0.39514172     O
O36   0.26777965 0.03629327 0.52441347     O
O37   0.43594557 0.9052706 0.5054596     O
O38   0.13331982 0.8207343 0.6965656     O
O39   0.31841448 0.87381214 0.6339019     O
S40   0.18267782 0.6329818 0.5702559     S
S41   0.039927877 0.72605616 0.3108024     S
S42   0.8896517 0.664845 0.46883407     S
S43   0.30624992 0.95957464 0.47121665     S
S44   0.18246762 0.87750596 0.6303893     S
S45   0.017132686 0.97297645 0.3632345     S
H46   0.6037752 0.2342747 0.27825248     H
H47   0.36582834 0.050609816 0.49758086     H
H48   0.6966592 0.70346606 0.30609486     H
H49   0.9325993 0.1049182 0.42887703     H
H50   0.27628237 0.61310667 0.64870894     H
H51   0.5965684 0.37679747 0.6616246     H
H52   0.629388 0.2044062 0.6572034     H
H53   0.5580441 0.40478653 0.2820041     H
C54   0.61144483 0.09810037 0.52993464     C
C55   0.5814737 0.5147973 0.40897006     C
C56   0.6713035 0.11480601 0.40108654     C
C57   0.5292603 0.49973541 0.5397533     C
C58   0.6199527 0.21074761 0.4000369     C
C59   0.5722126 0.40155777 0.5398164     C
C60   0.6159256 0.19915321 0.5351172     C
C61   0.57465285 0.41341314 0.40421507     C
C62   0.60588783 0.2556901 0.46868235     C
C63   0.5837053 0.35686925 0.47089303     C
C64   0.59826255 0.26658747 0.3329389     C
C65   0.5957127 0.34495047 0.60677195     C
C66   0.6161917 0.24543844 0.6044691     C
C67   0.5751412 0.36594668 0.335022     C
S68   0.49534845 0.050382145 0.5886785     S
S69   0.69916683 0.5585344 0.3484079     S
S70   0.8001957 0.10210652 0.3395498     S
S71   0.4382136 0.5293105 0.6205404     S
N72   0.6539868 0.053017143 0.46436045     N
N73   0.5434609 0.5602575 0.47530705     N
O74   0.5478052 0.9815307 0.6482998     O
O75   0.4238742 0.12824932 0.6289751     O
O76   0.3952454 0.9993514 0.53416866     O
O77   0.8152253 0.5020917 0.36939758     O
O78   0.67357594 0.53987795 0.26695034     O
O79   0.72676784 0.6734883 0.35411268     O
O80   0.7724861 0.04087875 0.2746864     O
O81   0.8333808 0.19744821 0.30605358     O
O82   0.92337966 0.059369072 0.38795468     O
O83   0.37339777 0.4425597 0.6477064     O
O84   0.5212564 0.5563519 0.6824924     O
O85   0.33018866 0.61582166 0.60377795     O
H86   0.39611688 0.8026893 0.7090915     H
H87   0.78793705 0.8057395 0.7007362     H
H88   0.42039058 0.7881108 0.2382592     H
H89   0.81028354 0.78925693 0.23001707     H
H90   0.28073347 0.7233309 0.0058158636     H
H91   0.94008636 0.7255623 0.99176544     H
H92   0.30914846 0.7956434 0.8254057     H
H93   0.885451 0.8001307 0.8131435     H
C94   0.5878727 0.80753297 0.6120517     C
C95   0.4995764 0.78022635 0.12690997     C
C96   0.72322404 0.7809142 0.12217748     C
C97   0.5041129 0.7883427 0.20566046     C
C98   0.72400504 0.7890114 0.20100868     C
C99   0.615289 0.79411274 0.2429297     C
C100  0.60988957 0.7785518 0.08469212     C
C101  0.60613894 0.7832904 0.0032513142     C
C102  0.6029043 0.78840494 0.9352817     C
C103  0.4860039 0.7967687  0.81725     C
C104  0.7082702 0.7985032 0.8125105     C
C105  0.48310488 0.8016356 0.7377308     C
C106  0.7037645 0.80335695 0.73302585     C
C107  0.59159744 0.8045875 0.6953727     C
C108  0.59901756 0.7947326 0.8541156     C
C109  0.6182342 0.8007496 0.32600725     C
C110  0.37830994 0.77291006 0.090922475     C
C111  0.8423386 0.77436566 0.08108795     C
O112  0.4842745 0.80743784 0.57812464     O
O113  0.68830127 0.80910337 0.5737368     O
O114  0.51766944 0.801532 0.36432076     O
O115  0.72154605 0.8031963 0.35993612     O
O116  0.2863628 0.80786204 0.121107936     O
O117  0.36811346 0.72384167 0.023908734     O
O118  0.9313193 0.80979306 0.10748899     O
O119  0.8543315 0.72552425 0.013536215     O
O120  0.38014475 0.7937788 0.85991377     O
O121  0.8178458 0.79718053 0.8505918     O
loop_
_geom_bond_atom_site_label_1
_geom_bond_atom_site_label_2
_geom_bond_distance
_geom_bond_site_symmetry_2
_ccdc_geom_bond_type
Cu0   Cu1    2.69451       .     S
Cu0   O19    3.57614       .     S
Cu0   O21    1.64833       .     S
Cu0   N73    3.50074       .     S
Cu0   O112   2.08065       .     S
Cu0   O114   1.74902       .     S
Cu1   Cu0    2.69451       .     S
Cu1   O20    1.71061       .     S
Cu1   O22    3.80870       .     S
Cu1   N72    3.55020   1_565     S
Cu1   O113   1.70321       .     S
Cu1   O115   2.11523       .     S
C2    C4     1.49008   1_455     S
C2    C6     1.55435       .     S
C2    C7     1.54584       .     S
C2    C10    1.55715       .     S
C3    C11    1.48610       .     S
C3    O19    1.31199       .     S
C3    O21    1.29998       .     S
C4    C2     1.49008   1_655     S
C4    O20    1.31240       .     S
C4    O22    1.30277       .     S
C5    C6     1.53947       .     S
C5    C10    1.54246       .     S
C5    C11    1.55318       .     S
C5    S43    1.83808       .     S
C6    C2     1.55435       .     S
C6    C5     1.53947       .     S
C6    C9     1.54190       .     S
C6    S44    1.84172       .     S
C7    C2     1.54584       .     S
C7    C8     1.54236       .     S
C7    C9     1.54277       .     S
C7    S42    1.82587   1_455     S
C8    C7     1.54236       .     S
C8    C10    1.54597       .     S
C8    C11    1.54321       .     S
C8    S41    1.83086       .     S
C9    C6     1.54190       .     S
C9    C7     1.54277       .     S
C9    C11    1.55245       .     S
C9    S40    1.72803       .     S
C10   C2     1.55715       .     S
C10   C5     1.54246       .     S
C10   C8     1.54597       .     S
C10   S45    1.73367       .     S
C11   C3     1.48610       .     S
C11   C5     1.55318       .     S
C11   C8     1.54321       .     S
C11   C9     1.55245       .     S
H12   O25    0.99108       .     S
H13   O28    0.99129   1_455     S
H14   O31    0.99016       .     S
H15   O34    0.99031       .     S
H16   O37    0.99071       .     S
H17   O18    0.99062   1_545     S
O18   H17    0.99062   1_565     S
O18   S44    1.68341       .     S
O19   Cu0    3.57614       .     S
O19   C3     1.31199       .     S
O20   Cu1    1.71061       .     S
O20   C4     1.31240       .     S
O21   Cu0    1.64833       .     S
O21   C3     1.29998       .     S
O22   Cu1    3.80870       .     S
O22   C4     1.30277       .     S
O23   S40    1.48484       .     S
O24   S40    1.47799       .     S
O25   H12    0.99108       .     S
O25   S40    1.66683       .     S
O26   S45    1.48427   1_645     S
O27   S45    1.48793   1_545     S
O28   H13    0.99129   1_655     S
O28   S45    1.65738   1_655     S
O29   S42    1.50190       .     S
O30   S42    1.49947       .     S
O31   H14    0.99016       .     S
O31   S42    1.67002       .     S
O32   S41    1.50347       .     S
O33   S41    1.50113       .     S
O34   H15    0.99031       .     S
O34   S41    1.66822   1_655     S
O35   S43    1.50211   1_545     S
O36   S43    1.49377   1_545     S
O37   H16    0.99071       .     S
O37   S43    1.68226       .     S
O38   S44    1.50384       .     S
O39   S44    1.49200       .     S
S40   C9     1.72803       .     S
S40   O23    1.48484       .     S
S40   O24    1.47799       .     S
S40   O25    1.66683       .     S
S41   C8     1.83086       .     S
S41   O32    1.50347       .     S
S41   O33    1.50113       .     S
S41   O34    1.66822   1_455     S
S42   C7     1.82587   1_655     S
S42   O29    1.50190       .     S
S42   O30    1.49947       .     S
S42   O31    1.67002       .     S
S43   C5     1.83808       .     S
S43   O35    1.50211   1_565     S
S43   O36    1.49377   1_565     S
S43   O37    1.68226       .     S
S44   C6     1.84172       .     S
S44   O18    1.68341       .     S
S44   O38    1.50384       .     S
S44   O39    1.49200       .     A
S45   C10    1.73367       .     A
S45   O26    1.48427   1_465     A
S45   O27    1.48793   1_565     S
S45   O28    1.65738   1_455     S
H46   C64    1.08097       .     A
H47   O76    0.99078   1_545     A
H48   O79    0.98386       .     A
H49   O82    0.99070       .     A
H50   O85    0.98685       .     A
H51   C65    1.08122       .     A
H52   C66    1.08314       .     S
H53   C67    1.07831       .     A
C54   C60    1.42618       .     A
C54   S68    1.78128       .     A
C54   N72    1.40295       .     A
C55   C61    1.43265       .     A
C55   S69    1.79136       .     S
C55   N73    1.40271       .     S
C56   C58    1.42785       .     A
C56   S70    1.78178       .     S
C56   N72    1.40725       .     A
C57   C59    1.42903       .     S
C57   S71    1.78270       .     A
C57   N73    1.40777       .     A
C58   C56    1.42785       .     S
C58   C62    1.38942       .     S
C58   C64    1.41068       .     S
C59   C57    1.42903       .     S
C59   C63    1.39016       .     S
C59   C65    1.41718       .     S
C60   C54    1.42618       .     A
C60   C62    1.39349       .     S
C60   C66    1.40629       .     S
C61   C55    1.43265       .     S
C61   C63    1.39654       .     S
C61   C67    1.41177       .     S
C62   C58    1.38942       .     S
C62   C60    1.39349       .     S
C62   C63    1.42705       .     S
C63   C59    1.39016       .     S
C63   C61    1.39654       .     S
C63   C62    1.42705       .     S
C64   H46    1.08097       .     A
C64   C58    1.41068       .     A
C64   C67    1.40304       .     A
C65   H51    1.08122       .     S
C65   C59    1.41718       .     S
C65   C66    1.40208       .     A
C66   H52    1.08314       .     A
C66   C60    1.40629       .     A
C66   C65    1.40208       .     A
C67   H53    1.07831       .     A
C67   C61    1.41177       .     A
C67   C64    1.40304       .     S
S68   C54    1.78128       .     A
S68   O74    1.49841   1_545     A
S68   O75    1.50416       .     A
S68   O76    1.67360   1_545     A
S69   C55    1.79136       .     A
S69   O77    1.50290       .     S
S69   O78    1.50265       .     S
S69   O79    1.66288       .     A
S70   C56    1.78178       .     S
S70   O80    1.49878       .     A
S70   O81    1.50441       .     S
S70   O82    1.67574       .     A
S71   C57    1.78270       .     A
S71   O83    1.50513       .     S
S71   O84    1.50209       .     S
S71   O85    1.66764       .     S
N72   Cu1    3.55020   1_545     S
N72   C54    1.40295       .     S
N72   C56    1.40725       .     S
N73   Cu0    3.50074       .     A
N73   C55    1.40271       .     S
N73   C57    1.40777       .     S
O74   S68    1.49841   1_565     D
O75   S68    1.50416       .     S
O76   H47    0.99078   1_565     S
O76   S68    1.67360   1_565     A
O77   S69    1.50290       .     A
O78   S69    1.50265       .     S
O79   H48    0.98386       .     S
O79   S69    1.66288       .     A
O80   S70    1.49878       .     A
O81   S70    1.50441       .     S
O82   H49    0.99070       .     A
O82   S70    1.67574       .     S
O83   S71    1.50513       .     A
O84   S71    1.50209       .     D
O85   H50    0.98685       .     D
O85   S71    1.66764       .     S
H86   C105   1.08326       .     S
H87   C106   1.08331       .     S
H88   C97    1.08058       .     S
H89   C98    1.08061       .     S
H90   O117   1.01394       .     T
H91   O119   1.01396   1_556     S
H92   O120   0.99175       .     S
H93   O121   0.99161       .     S
C94   C107   1.47120       .     S
C94   O112   1.28973       .     S
C94   O113   1.28965       .     A
C95   C97    1.40077       .     A
C95   C100   1.41637       .     A
C95   C110   1.49002       .     A
C96   C98    1.40078       .     S
C96   C100   1.41653       .     A
C96   C111   1.49009       .     S
C97   H88    1.08058       .     A
C97   C95    1.40077       .     S
C97   C99    1.39893       .     D
C98   H89    1.08061       .     S
C98   C96    1.40078       .     D
C98   C99    1.39897       .     S
C99   C97    1.39893       .     S
C99   C98    1.39897       .     A
C99   C109   1.47396       .     A
C100  C95    1.41637       .     S
C100  C96    1.41653       .     S
C100  C101   1.43803       .     A
C101  C100   1.43803       .     A
C101  C102   1.20046   1_554     S
C102  C101   1.20046   1_556     A
C102  C108   1.43361       .     S
C103  C105   1.40388       .     A
C103  C108   1.40404       .     D
C103  O120   1.38157       .     D
C104  C106   1.40387       .     S
C104  C108   1.40392       .     S
C104  O121   1.38166       .     S
C105  H86    1.08326       .     S
C105  C103   1.40388       .     S
C105  C107   1.40303       .     T
C106  H87    1.08331       .     S
C106  C104   1.40387       .     S
C106  C107   1.40301       .     S
C107  C94    1.47120       .     S
C107  C105   1.40303       .     S
C107  C106   1.40301       .     A
C108  C102   1.43361       .     A
C108  C103   1.40404       .     A
C108  C104   1.40392       .     A
C109  C99    1.47396       .     S
C109  O114   1.28979       .     A
C109  O115   1.28962       .     S
C110  C95    1.49002       .     A
C110  O116   1.22344       .     S
C110  O117   1.39816       .     D
C111  C96    1.49009       .     S
C111  O118   1.22345       .     S
C111  O119   1.39802       .     S
O112  Cu0    2.08065       .     S
O112  C94    1.28973       .     S
O113  Cu1    1.70321       .     S
O113  C94    1.28965       .     S
O114  Cu0    1.74902       .     S
O114  C109   1.28979       .     S
O115  Cu1    2.11523       .     S
O115  C109   1.28962       .     S
O116  C110   1.22344       .     S
O117  H90    1.01394       .     S
O117  C110   1.39816       .     S
O118  C111   1.22345       .     S
O119  H91    1.01397   1_554     S
O119  C111   1.39802       .     S
O120  H92    0.99175       .     S
O120  C103   1.38157       .     S
O121  H93    0.99161       .     S
O121  C104   1.38166       .     S
