data_I
_chemical_name_common  'results/nh3_target_22mmol_v2/cif/sample_6'
_cell_length_a 15.00469
_cell_length_b 17.20061
_cell_length_c 18.76781
_cell_angle_alpha 88.64554
_cell_angle_beta  84.47929
_cell_angle_gamma 74.06393
_space_group_name_H-M_alt      'P 1'


loop_
_space_group_symop_operation_xyz
  'x, y, z' 

loop_
_atom_site_label
_atom_site_fract_x
_atom_site_fract_y
_atom_site_fract_z
_atom_site_type_symbol
H0    0.95972383 0.35782754 0.82789576     H
H1    0.9156081 0.63717294 0.50976247     H
H2    0.949789 0.6074763 0.8374439     H
H3    0.9255478 0.38752747 0.5002138     H
H4    0.8529369 0.4138473 0.74188805     H
H5    0.022395015 0.58115304 0.5957701     H
H6    0.035800338 0.56950647 0.72428244     H
H7    0.83953166 0.4254939 0.6133758     H
H8    0.9894517 0.31066138 0.020321965     H
H9     0.88588 0.6843391 0.3173363     H
H10   0.9606753 0.6193709 0.034180164     H
H11   0.9146518 0.37562615 0.30347854     H
C12   0.9669837 0.40375888 0.9331053     C
C13   0.90834826 0.59124154 0.40455303     C
C14   0.9640035 0.54288787 0.93810254     C
C15   0.91132843 0.45211256 0.39955577     C
C16   0.9594894 0.41038707 0.85865587     C
C17   0.91584355 0.5846124 0.47901213     C
C18   0.9559688 0.54974365 0.86372805     C
C19   0.91936314 0.44525674 0.4739302     C
C20   0.9537612 0.48351648 0.82312995     C
C21   0.9215716 0.5114831 0.5145381     C
C22   0.8910391 0.44999838 0.7106339     C
C23   0.98429376 0.54500127 0.6270341     C
C24   0.99200785 0.53829914 0.7009866     C
C25   0.8833241 0.45670125 0.63667154     C
C26   0.92982537 0.50431216 0.59366393     C
C27   0.9455076 0.49068734 0.744004     C
C28   0.97270936 0.32356998 0.9663698     C
C29   0.9026074 0.67143667 0.37129056     C
C30   0.9657881 0.61654496 0.9769833     C
C31   0.90954393 0.37845555 0.36067492     C
N32   0.9693465 0.46997592 0.9725409     N
N33   0.9059854 0.52502453 0.36511728     N
O34   0.95881665 0.26881474 0.9326458     O
O35   0.9164849 0.7261982 0.40501657     O
O36   0.9727383 0.67731035 0.944495     O
O37   0.9026087 0.3176839 0.39316106     O
H38   0.006657243 0.025786161 0.11723032     H
H39   0.8685242 0.9669306 0.22071972     H
H40   0.9029393 0.8533123 0.15076616     H
H41   0.97223926 0.1394155 0.18719345     H
H42   0.8901174 0.2817595 0.20069386     H
H43   0.9850638 0.71095747 0.13725615     H
C44   0.17205691 0.64230484 0.1115352     C
C45   0.70312417 0.35041225 0.22641489     C
C46   0.752353 0.2631414 0.21651591     C
C47   0.122828126 0.7295756 0.121434145     C
C48   0.84979576 0.23814511 0.20337318     C
C49   0.025385141 0.7545719 0.13457668     C
C50   0.89698535 0.15631926 0.19493367     C
C51   0.97819585 0.83639777 0.14301643     C
C52   0.8479758 0.097183704 0.19844896     C
C53   0.027205467 0.89553314 0.13950099     C
C54   0.75024843 0.12166476 0.21173513     C
C55   0.12493265 0.87105227 0.12621482     C
C56   0.7029598 0.20382059 0.22042812     C
C57   0.1722213 0.7888964 0.11752181     C
C58   0.89809656 0.009959698 0.19058156     C
C59   0.9770844 0.9827573 0.14736836     C
Cl60  0.6842607 0.050843596 0.21536025    Cl
Cl61  0.1909101 0.94188267 0.1225828    Cl
O62   0.6163043 0.36746418 0.2565243     O
O63   0.2588768 0.6252529 0.08142581     O
O64   0.12442386 0.58958554 0.13285005     O
O65   0.7507573 0.40313137 0.20509987     O
F66   0.26664722 0.7675405 0.10657875     F
F67   0.6085339 0.22517633 0.2313713     F
Zn68  0.8675379 0.56521523 0.21138246    Zn
Zn69  0.004478216 0.42487338 0.12804249    Zn
H70   0.2712727 0.3894118 0.07895277     H
H71   0.05312744 0.64670426 0.31372547     H
H72   0.81796587 0.3423255 0.023338262     H
H73   0.6009543 0.6023908 0.2568445     H
H74   0.45082122 0.619154 0.31550145     H
H75   0.42124864 0.37305036 0.020088833     H
C76   0.43381763 0.5834861 0.27456713     C
C77   0.74762654 0.5442702 0.16683741     C
C78   0.12481818 0.4470519 0.16929498     C
C79   0.28570873 0.4261059 0.12020096     C
C80   0.58658826 0.5655667 0.21567525     C
C81   0.21596387 0.46107632 0.17311311     C
C82   0.6564564 0.5303053 0.16294447     C
C83   0.23244683 0.5103763 0.22684863     C
C84   0.6400077 0.4808417 0.10931138     C
C85   0.32203054 0.5238985 0.22682649     C
C86   0.43835855 0.4084656 0.061173767     C
C87   0.5502684 0.46769574 0.10914082     C
C88   0.3915062 0.48919162 0.17013182     C
C89   0.48078534 0.5024424 0.16580479     C
C90   0.37212333 0.44078487 0.117517866     C
C91   0.5001435 0.550927 0.21835731     C
C92   0.34641954 0.56979597 0.2804332     C
C93   0.5257219 0.42220235 0.05531789     C
C94   0.15443435 0.5472058  0.28068     C
C95   0.7182889 0.4430359 0.056025878     C
Cl96  0.2763152 0.6095749 0.35934278    Cl
Cl97  0.5953777 0.38354608 0.97590625    Cl
O98   0.10660655 0.6288963 0.27505407     O
O99   0.7446134 0.48435223 0.009051708     O
O100  0.76411813 0.36086354 0.06159234     O
O101  0.7526471 0.61530745 0.18303812     O
O102  0.11981394 0.3759971 0.15312915     O
O103  0.05144397 0.5065516 0.1809431     O
O104  0.821017 0.48475286 0.15522417     O
O105  0.13007693 0.50541896 0.3281561     O
loop_
_geom_bond_atom_site_label_1
_geom_bond_atom_site_label_2
_geom_bond_distance
_geom_bond_site_symmetry_2
_ccdc_geom_bond_type
H0    C16    1.08312       .     D
H1    C17    1.08303       .     D
H2    C18    1.08312       .     S
H3    C19    1.08305       .     S
H4    C22    1.08214       .     S
H5    C23    1.08223   1_455     S
H6    C24    1.08218   1_455     S
H7    C25    1.08218       .     S
H8    C28    1.07022   1_554     A
H9    C29    1.07019       .     A
H10   C30    1.07011   1_554     A
H11   C31    1.07011       .     A
C12   C16    1.41196       .     A
C12   C28    1.48463       .     A
C12   N32    1.38325       .     S
C13   C17    1.41214       .     S
C13   C29    1.48468       .     A
C13   N33    1.38325       .     A
C14   C18    1.41196       .     A
C14   C30    1.48473       .     A
C14   N32    1.38328       .     A
C15   C19    1.41195       .     S
C15   C31    1.48473       .     A
C15   N33    1.38328       .     A
C16   H0     1.08312       .     S
C16   C12    1.41196       .     A
C16   C20    1.39506       .     A
C17   H1     1.08303       .     A
C17   C13    1.41214       .     S
C17   C21    1.39506       .     S
C18   H2     1.08312       .     A
C18   C14    1.41196       .     S
C18   C20    1.39496       .     A
C19   H3     1.08305       .     S
C19   C15    1.41195       .     S
C19   C21    1.39506       .     S
C20   C16    1.39506       .     S
C20   C18    1.39496       .     D
C20   C27    1.50139       .     S
C21   C17    1.39506       .     D
C21   C19    1.39506       .     D
C21   C26    1.50139       .     D
C22   H4     1.08214       .     S
C22   C25    1.40341       .     S
C22   C27    1.40830       .     S
C23   H5     1.08223   1_655     S
C23   C24    1.40323       .     S
C23   C26    1.40830       .     S
C24   H6     1.08218   1_655     A
C24   C23    1.40323       .     A
C24   C27    1.40834       .     A
C25   H7     1.08218       .     A
C25   C22    1.40341       .     A
C25   C26    1.40825       .     A
C26   C21    1.50139       .     S
C26   C23    1.40830       .     S
C26   C25    1.40825       .     A
C27   C20    1.50139       .     A
C27   C22    1.40830       .     A
C27   C24    1.40834       .     A
C28   H8     1.07022   1_556     A
C28   C12    1.48463       .     S
C28   O34    1.22166       .     A
C29   H9     1.07019       .     A
C29   C13    1.48468       .     S
C29   O35    1.22167       .     A
C30   H10    1.07011   1_556     A
C30   C14    1.48473       .     A
C30   O36    1.22172       .     S
C31   H11    1.07011       .     S
C31   C15    1.48473       .     A
C31   O37    1.22173       .     S
N32   C12    1.38325       .     A
N32   C14    1.38328       .     S
N32   Zn69   3.05963   1_656     S
N33   C13    1.38325       .     S
N33   C15    1.38328       .     S
N33   Zn68   3.02365       .     D
O34   C28    1.22166       .     S
O35   C29    1.22167       .     D
O36   C30    1.22172       .     D
O37   C31    1.22173       .     S
H38   C59    1.08484   1_445     S
H39   C58    1.08484   1_565     S
H40   C51    1.08208       .     A
H41   C50    1.08203       .     A
H42   C48    1.08303       .     A
H43   C49    1.08303   1_655     S
C44   C47    1.48707       .     A
C44   O63    1.32619       .     S
C44   O64    1.33300       .     A
C45   C46    1.48707       .     A
C45   O62    1.32619       .     S
C45   O65    1.33299       .     S
C46   C45    1.48707       .     S
C46   C48    1.40494       .     D
C46   C56    1.41316       .     S
C47   C44    1.48707       .     S
C47   C49    1.40494       .     S
C47   C57    1.41316       .     A
C48   H42    1.08303       .     A
C48   C46    1.40494       .     A
C48   C50    1.39610       .     S
C49   H43    1.08303   1_455     A
C49   C47    1.40494       .     S
C49   C51    1.39610   1_455     A
C50   H41    1.08203       .     A
C50   C48    1.39610       .     S
C50   C52    1.40641       .     S
C51   H40    1.08208       .     D
C51   C49    1.39610   1_655     S
C51   C53    1.40641   1_655     D
C52   C50    1.40641       .     S
C52   C54    1.40900       .     S
C52   C58    1.48587       .     S
C53   C51    1.40641   1_455     A
C53   C55    1.40899       .     A
C53   C59    1.48588   1_455     A
C54   C52    1.40900       .     S
C54   C56    1.40180       .     A
C54   Cl60   1.76475       .     S
C55   C53    1.40899       .     A
C55   C57    1.40180       .     A
C55   Cl61   1.76477       .     S
C56   C46    1.41316       .     S
C56   C54    1.40180       .     S
C56   F67    1.35879       .     D
C57   C47    1.41316       .     S
C57   C55    1.40180       .     S
C57   F66    1.35879       .     S
C58   H39    1.08484   1_545     A
C58   C52    1.48587       .     A
C58   C59    1.34530   1_545     A
C59   H38    1.08484   1_665     S
C59   C53    1.48588   1_655     A
C59   C58    1.34530   1_565     S
Cl60  C54    1.76475       .     A
Cl61  C55    1.76477       .     A
O62   C45    1.32619       .     S
O62   Zn69   6.40757   1_655     S
O63   C44    1.32619       .     D
O63   Zn68   6.47686   1_455     S
O64   C44    1.33300       .     S
O64   Zn68   4.11948   1_455     S
O65   C45    1.33299       .     S
O65   Zn69   4.05235   1_655     D
F66   C57    1.35879       .     S
F67   C56    1.35879       .     S
Zn68  N33    3.02365       .     A
Zn68  O63    6.47686   1_655     A
Zn68  O64    4.11948   1_655     A
Zn68  Zn69   3.05484   1_655     S
Zn68  O101   1.82656       .     S
Zn68  O104   2.06266       .     S
Zn69  N32    3.05963   1_454     A
Zn69  O62    6.40757   1_455     A
Zn69  O65    4.05235   1_455     A
Zn69  Zn68   3.05484   1_455     A
Zn69  O102   1.80623       .     A
Zn69  O103   2.04947       .     A
H70   C79    1.08398       .     D
H71   O98    1.01389       .     S
H72   O100   1.01374       .     S
H73   C80    1.08389       .     A
H74   C76    1.08519       .     A
H75   C86    1.08523       .     A
C76   H74    1.08519       .     A
C76   C91    1.39170       .     S
C76   C92    1.38847       .     A
C77   C82    1.46113       .     D
C77   O101   1.28982       .     S
C77   O104   1.28588       .     A
C78   C81    1.46100       .     S
C78   O102   1.28986       .     A
C78   O103   1.28563       .     S
C79   H70    1.08398       .     A
C79   C81    1.38771       .     A
C79   C90    1.38352       .     S
C80   H73    1.08389       .     S
C80   C82    1.38776       .     D
C80   C91    1.38367       .     A
C81   C78    1.46100       .     S
C81   C79    1.38771       .     S
C81   C83    1.41454       .     S
C82   C77    1.46113       .     D
C82   C80    1.38776       .     S
C82   C84    1.41477       .     S
C83   C81    1.41454       .     A
C83   C85    1.42565       .     A
C83   C94    1.47909       .     A
C84   C82    1.41477       .     S
C84   C87    1.42558       .     S
C84   C95    1.47916       .     S
C85   C83    1.42565       .     A
C85   C88    1.43183       .     A
C85   C92    1.42703       .     A
C86   H75    1.08523       .     A
C86   C90    1.39182       .     A
C86   C93    1.38831       .     A
C87   C84    1.42558       .     D
C87   C89    1.43166       .     S
C87   C93    1.42674       .     S
C88   C85    1.43183       .     A
C88   C89    1.41384       .     A
C88   C90    1.40713       .     A
C89   C87    1.43166       .     A
C89   C88    1.41384       .     S
C89   C91    1.40701       .     A
C90   C79    1.38352       .     D
C90   C86    1.39182       .     S
C90   C88    1.40713       .     A
C91   C76    1.39170       .     S
C91   C80    1.38367       .     A
C91   C89    1.40701       .     S
C92   C76    1.38847       .     A
C92   C85    1.42703       .     A
C92   Cl96   1.76658       .     S
C93   C86    1.38831       .     S
C93   C87    1.42674       .     D
C93   Cl97   1.76670   1_554     A
C94   C83    1.47909       .     S
C94   O98    1.39799       .     S
C94   O105   1.22288       .     S
C95   C84    1.47916       .     S
C95   O99    1.22303       .     S
C95   O100   1.39809       .     S
Cl96  C92    1.76658       .     S
Cl97  C93    1.76670   1_556     S
O98   H71    1.01389       .     S
O98   C94    1.39799       .     S
O99   C95    1.22303       .     S
O100  H72    1.01374       .     S
O100  C95    1.39809       .     S
O101  Zn68   1.82656       .     S
O101  C77    1.28982       .     S
O102  Zn69   1.80623       .     S
O102  C78    1.28986       .     S
O103  Zn69   2.04947       .     S
O103  C78    1.28563       .     S
O104  Zn68   2.06266       .     S
O104  C77    1.28588       .     S
O105  C94    1.22288       .     S
