data_I
_chemical_name_common  'results/nh3_target_22mmol_v2/cif/sample_0'
_cell_length_a 11.74036
_cell_length_b 12.10553
_cell_length_c 12.55500
_cell_angle_alpha 88.01508
_cell_angle_beta  88.28896
_cell_angle_gamma 86.50353
_space_group_name_H-M_alt      'P 1'


loop_
_space_group_symop_operation_xyz
  'x, y, z' 

loop_
_atom_site_label
_atom_site_fract_x
_atom_site_fract_y
_atom_site_fract_z
_atom_site_type_symbol
Zn0   0.50207806 0.019918976 0.6767251    Zn
Zn1   0.5319362 0.057855476 0.43543562    Zn
H2    0.28463367 0.5350325 0.607357     H
H3    0.7473976 0.54314107 0.5089576     H
C4    0.3671136 0.50079554 0.57984185     C
C5    0.6649319 0.57738066 0.5365106     C
C6    0.37553146 0.3917428 0.54672486     C
C7    0.65644956 0.6864561 0.56967217     C
C8    0.5735047 0.40363225 0.5060009     C
C9    0.4585647 0.6744546 0.6104019     C
C10   0.56843895 0.5145169 0.5393884     C
C11    0.46364 0.5636071 0.5769743     C
N12   0.5542886 0.73391104 0.6053962     N
N13   0.47769293 0.34427553 0.5110536     N
Cl14  0.2506113 0.31892794 0.55199194    Cl
Cl15  0.329277 0.73670924 0.6602246    Cl
Cl16  0.70282215 0.34106737 0.4563182    Cl
Cl17  0.78133625 0.7593232 0.5643947    Cl
Br18  0.39608294 0.8103541 0.13676594    Br
Br19  0.3370881 0.19609673 0.9160995    Br
Br20  0.2860124 0.10256362 0.20588754    Br
C21   0.4878233 0.9861032 0.9757167     C
C22   0.61923313 0.2330467 0.9946705     C
C23   0.66898555 0.90293187 0.17894806     C
C24   0.45748705  0.92759 0.88185126     C
C25   0.5722186 0.15149367 0.23850076     C
C26   0.44221184 0.1040172 0.0021327415     C
C27   0.46622667 0.9458367 0.091620505     C
C28   0.42100164 0.06438141 0.11887557     C
C29   0.5431758 0.092208855 0.14450808     C
C30   0.56441146 0.13136423 0.02845358     C
C31   0.58811647 0.9745024 0.11700497     C
C32   0.6109592 0.013541599 0.0002742612     C
H33   0.68879145 0.992219 0.95096636     H
N34   0.7327852 0.8465386 0.22775541     N
N35   0.6625723 0.31319097 0.96819293     N
O36   0.55065566 0.25637245 0.24032818     O
O37   0.6160986 0.09633655 0.31734306     O
O38   0.5329157 0.91542864 0.8056466     O
O39   0.35661185 0.8910213 0.87885857     O
C40   0.74077106 0.030460862 0.5845645     C
C41   0.29506058 0.051579885 0.5301138     C
C42   0.8592531 0.034952626 0.57292277     C
C43   0.1765801 0.047065515 0.54175276     C
C44   0.9595787 0.038785867 0.56306857     C
C45   0.07625299 0.043255117 0.5516098     C
O46   0.69639695 0.014205278 0.676563     O
O47   0.33943474 0.067835554 0.43811536     O
O48   0.35602784 0.038960006 0.61172014     O
O49   0.67980385 0.04308082 0.5029582     O
loop_
_geom_bond_atom_site_label_1
_geom_bond_atom_site_label_2
_geom_bond_distance
_geom_bond_site_symmetry_2
_ccdc_geom_bond_type
Zn0   Zn1    3.06118       .     S
Zn0   N12    3.61776   1_545     S
Zn0   O38    2.04653   1_545     S
Zn0   O39    3.40348   1_545     S
Zn0   O46    2.27814       .     S
Zn0   O48    1.91877       .     A
Zn1   Zn0    3.06118       .     A
Zn1   N13    3.64025       .     A
Zn1   O36    3.38354       .     A
Zn1   O37    1.82000       .     A
Zn1   O47    2.25520       .     A
Zn1   O49    1.95037       .     A
H2    C4     1.08157       .     A
H3    C5     1.08158       .     A
C4    H2     1.08157       .     A
C4    C6     1.39466       .     S
C4    C11    1.40160       .     A
C5    H3     1.08158       .     S
C5    C7     1.39511       .     S
C5    C10    1.40164       .     S
C6    C4     1.39466       .     S
C6    N13    1.36786       .     S
C6    Cl14   1.75503       .     A
C7    C5     1.39511       .     A
C7    N12    1.36800       .     A
C7    Cl17   1.75504       .     A
C8    C10    1.41733       .     A
C8    N13    1.36997       .     A
C8    Cl16   1.76172       .     A
C9    C11    1.41706       .     A
C9    N12    1.36978       .     A
C9    Cl15   1.76058       .     A
C10   C5     1.40164       .     S
C10   C8     1.41733       .     A
C10   C11    1.40898       .     S
C11   C4     1.40160       .     S
C11   C9     1.41706       .     S
C11   C10    1.40898       .     D
N12   Zn0    3.61776   1_565     T
N12   C7     1.36800       .     S
N12   C9     1.36978       .     S
N13   Zn1    3.64025       .     S
N13   C6     1.36786       .     S
N13   C8     1.36997       .     S
Cl14  C6     1.75503       .     S
Cl15  C9     1.76058       .     S
Cl16  C8     1.76172       .     S
Cl17  C7     1.75504       .     S
Br18  C27    1.93954       .     S
Br19  C26    1.93929   1_556     S
Br20  C28    1.93932       .     S
C21   C24    1.45982       .     S
C21   C26    1.53727   1_566     S
C21   C27    1.53731   1_556     S
C21   C32    1.54519   1_566     S
C22   C30    1.46748   1_556     S
C22   N35    1.15691       .     S
C23   C31    1.46764       .     S
C23   N34    1.15700       .     D
C24   C21    1.45982       .     S
C24   O38    1.29016       .     S
C24   O39    1.29141       .     T
C25   C29    1.46166       .     S
C25   O36    1.28023       .     D
C25   O37    1.27819       .     T
C26   Br19   1.93929   1_554     S
C26   C21    1.53727   1_544     S
C26   C28    1.54421       .     S
C26   C30    1.53977       .     S
C27   Br18   1.93954       .     S
C27   C21    1.53731   1_554     S
C27   C28    1.54551   1_565     S
C27   C31    1.53795       .     S
C28   Br20   1.93932       .     S
C28   C26    1.54421       .     S
C28   C27    1.54551   1_545     S
C28   C29    1.53898       .     S
C29   C25    1.46166       .     S
C29   C28    1.53898       .     S
C29   C30    1.53452       .     S
C29   C31    1.53605   1_545     S
C30   C22    1.46748   1_554     S
C30   C26    1.53977       .     S
C30   C29    1.53452       .     S
C30   C32    1.54483       .     D
C31   C23    1.46764       .     S
C31   C27    1.53795       .     S
C31   C29    1.53605   1_565     T
C31   C32    1.54503   1_565     D
C32   C21    1.54519   1_544     S
C32   C30    1.54483       .     S
C32   C31    1.54503   1_545     T
C32   H33    1.11057   1_544     S
H33   C32    1.11057   1_566     T
N34   C23    1.15700       .     S
N35   C22    1.15691       .     D
O36   Zn1    3.38354       .     S
O36   C25    1.28023       .     D
O37   Zn1    1.82000       .     S
O37   C25    1.27819       .     S
O38   Zn0    2.04653   1_565     T
O38   C24    1.29016       .     S
O39   Zn0    3.40348   1_565     T
O39   C24    1.29141       .     S
C40   C42    1.39850       .     D
C40   O46    1.26692       .     S
C40   O49    1.26690       .     S
C41   C43    1.39850       .     S
C41   O47    1.26692       .     S
C41   O48    1.26690       .     S
C42   C40    1.39850       .     S
C42   C44    1.18422       .     S
C43   C41    1.39850       .     S
C43   C45    1.18421       .     S
C44   C42    1.18422       .     S
C44   C45    1.37721   1_655     S
C45   C43    1.18421       .     S
C45   C44    1.37721   1_455     S
O46   Zn0    2.27814       .     S
O46   C40    1.26692       .     S
O47   Zn1    2.25520       .     S
O47   C41    1.26692       .     S
O48   Zn0    1.91877       .     S
O48   C41    1.26690       .     S
O49   Zn1    1.95037       .     S
O49   C40    1.26690       .     S
