data_I
_chemical_name_common  'results/nh3_target_10mmol/cif/sample_3'
_cell_length_a 12.20798
_cell_length_b 13.09691
_cell_length_c 22.03719
_cell_angle_alpha 91.18624
_cell_angle_beta  94.93524
_cell_angle_gamma 82.08156
_space_group_name_H-M_alt      'P 1'


loop_
_space_group_symop_operation_xyz
  'x, y, z' 

loop_
_atom_site_label
_atom_site_fract_x
_atom_site_fract_y
_atom_site_fract_z
_atom_site_type_symbol
Zn0   0.15877844 0.9437645 0.98372054    Zn
Zn1   0.35448876 0.06279102 0.9709249    Zn
H2    0.2677763 0.19546913 0.59442776     H
H3    0.2464615 0.8150736 0.3557621     H
H4    0.33173436 0.25898102 0.5026908     H
H5    0.18250331 0.75156176 0.44749913     H
H6    0.61149704 0.2321883 0.2395573     H
H7    0.9027326 0.7783745 0.710625     H
H8    0.3070616 0.17637949 0.137806     H
H9    0.20717622 0.83416325 0.8123839     H
H10   0.24166851 0.11335711 0.23044571     H
H11   0.27256933 0.8971856 0.7197441     H
C12   0.011885547 0.75888443 0.8241464     C
C13   0.5023305 0.25166476 0.1260528     C
C14   0.16966476 0.8522644 0.5561427     C
C15   0.34457645 0.15828098 0.39404908     C
C16   0.19541442 0.010746741 0.6073209     C
C17   0.3188234 0.9997959 0.34286895     C
C18   0.23447901 0.048475944 0.5549085     C
C19   0.27972892 0.9620932 0.39528325     C
C20   0.23841365 0.98675597 0.5018567     C
C21   0.27582422 0.023786696 0.44833317     C
C22   0.20510449 0.8880847 0.5022102     C
C23   0.3091333 0.12245794 0.4479797     C
C24   0.26898915 0.14655034 0.5541931     C
C25   0.24524869 0.86399233 0.39599675     C
C26   0.30577347 0.18308556 0.5014097     C
C27   0.20846434 0.8274571 0.44878012     C
C28   0.49472138 0.1675621 0.28955215     C
C29   0.01950835 0.8430007 0.6606301     C
C30   0.5306651 0.20632827 0.23701605     C
C31   0.9835727 0.8042145 0.7131738     C
C32   0.4641519 0.20984271 0.18152939     C
C33   0.050085843   0.8007 0.7686604     C
C34   0.3604049 0.1742268 0.17979385     C
C35   0.15383285 0.8363159 0.770396     C
C36   0.32303098 0.13803673 0.23266259     C
C37   0.19120683 0.872506 0.7175273     C
C38   0.38960347 0.13420375 0.2881748     C
C39   0.12462631 0.876359 0.6620075     C
N40   0.16382262 0.9139337 0.6073806     N
N41   0.3504151 0.09660908 0.3428092     N
O42   0.5719238 0.31809056 0.13322417     O
O43   0.942314 0.69245213 0.8169657     O
O44   0.04885291 0.7917528 0.8769476     O
O45   0.4653849 0.21878992 0.07324225     O
O46   0.14265399 0.7558878 0.55744314     O
O47   0.37158376 0.2546549 0.39274675     O
O48   0.18784383 0.07117182 0.6575324     O
O49   0.3263939 0.9393708 0.29265743     O
F50   0.56310546 0.1614712 0.34165376     F
F51   0.9511323 0.84907144 0.6085361     F
H52   0.7540486 0.8018538 0.9410028     H
H53   0.75908935 0.20734978 0.010776877     H
H54   0.013278246 0.81751776 0.9941316     H
H55   0.49939024 0.1916089 0.957279     H
H56   0.041632056 0.1754743 0.005246043     H
H57   0.47117028 0.8340862 0.94652474     H
C58   0.71660644 0.87967676 0.9507766     C
C59   0.7965322 0.1295698 0.0008664131     C
C60   0.60050553 0.90134543 0.9460835     C
C61   0.9126121 0.10786142 0.0057303905     C
C62   0.6123925 0.075808324 0.97446233     C
C63   0.90079516 0.9335654 0.97684646     C
C64   0.7301818 0.053860705 0.9821266     C
C65   0.7829855 0.9554452 0.96933395     C
N66   0.9657892 0.010010136 0.99449044     N
N67   0.54729986 0.99931395 0.9570667     N
O68   0.9468573 0.8337275 0.9659093     O
O69   0.56658196 0.1758863 0.98494583     O
O70   0.96928406 0.18896525 0.02216816     O
O71   0.543899 0.8200251 0.9301114     O
H72   0.48533967 0.48220366 0.9792168     H
H73   0.024105694 0.5295297 0.96985847     H
H74   0.29447865 0.240809 0.017900944     H
H75   0.2146096 0.7710767 0.93107545     H
H76   0.38654214 0.6535903 0.9501693     H
H77   0.12272107 0.3581548 0.99846697     H
C78   0.50760484 0.27603167 0.008400679     C
C79   0.0016419376 0.73590976 0.94154936     C
C80   0.4041181 0.35222754 0.00020003319     C
C81   0.105188765 0.6596878 0.9491438     C
C82   0.30833906 0.6253513 0.95476335     C
C83   0.20096537 0.3864139 0.9940014     C
C84   0.20929644 0.6925495 0.9437243     C
C85   0.29993537 0.31930465 0.0052672625     C
C86   0.103008464 0.55641633 0.965116     C
C87   0.40638238 0.45537826 0.9839126     C
C88   0.20287018 0.48849568 0.97689754     C
C89   0.30651173 0.5232671 0.971951     C
O90   0.49106318 0.17769742 0.0017449856     O
O91   0.018150276 0.8342161 0.94847655     O
O92   0.6054816 0.31130332 0.020079613     O
O93   0.90373206 0.70061004 0.93014187     O
loop_
_geom_bond_atom_site_label_1
_geom_bond_atom_site_label_2
_geom_bond_distance
_geom_bond_site_symmetry_2
_ccdc_geom_bond_type
Zn0   Zn1    3.06241   1_565     S
Zn0   O43    5.61656   1_455     S
Zn0   O45    5.74688   1_566     D
Zn0   N66    2.42577   1_465     S
Zn0   O91    2.45197       .     S
Zn0   O93    4.81392   1_455     S
Zn1   Zn0    3.06241   1_545     A
Zn1   O42    5.59776   1_556     A
Zn1   O44    5.72949   1_545     A
Zn1   N67    2.42878   1_545     S
Zn1   O90    2.44134   1_556     A
Zn1   O92    4.81521   1_556     S
H2    C24    1.08304       .     A
H3    C25    1.08304       .     A
H4    C26    1.08322       .     S
H5    C27    1.08322       .     S
H6    C30    1.08324       .     D
H7    C31    1.08321       .     S
H8    C34    1.08323       .     S
H9    C35    1.08323       .     S
H10   C36    1.08301       .     S
H11   C37    1.08301       .     D
C12   C33    1.48618       .     S
C12   O43    1.29544   1_455     A
C12   O44    1.29821       .     A
C13   C32    1.48593       .     A
C13   O42    1.29557       .     A
C13   O45    1.29834       .     A
C14   C22    1.40973       .     A
C14   N40    1.37572       .     S
C14   O46    1.34930       .     A
C15   C23    1.40973       .     S
C15   N41    1.37577       .     A
C15   O47    1.34925       .     A
C16   C18    1.41032       .     A
C16   N40    1.37526   1_545     S
C16   O48    1.34922       .     A
C17   C19    1.41038       .     S
C17   N41    1.37526   1_565     S
C17   O49    1.34922       .     D
C18   C16    1.41032       .     S
C18   C20    1.40797   1_545     S
C18   C24    1.40666       .     D
C19   C17    1.41038       .     S
C19   C21    1.40774   1_565     S
C19   C25    1.40683       .     A
C20   C18    1.40797   1_565     A
C20   C21    1.41860   1_565     A
C20   C22    1.40754       .     S
C21   C19    1.40774   1_545     A
C21   C20    1.41860   1_545     S
C21   C23    1.40754       .     A
C22   C14    1.40973       .     A
C22   C20    1.40754       .     S
C22   C27    1.40684       .     S
C23   C15    1.40973       .     D
C23   C21    1.40754       .     S
C23   C26    1.40683       .     D
C24   H2     1.08304       .     S
C24   C18    1.40666       .     S
C24   C26    1.39849       .     S
C25   H3     1.08304       .     A
C25   C19    1.40683       .     A
C25   C27    1.39849       .     A
C26   H4     1.08322       .     S
C26   C23    1.40683       .     A
C26   C24    1.39849       .     S
C27   H5     1.08322       .     A
C27   C22    1.40684       .     A
C27   C25    1.39849       .     S
C28   C30    1.40137       .     S
C28   C38    1.40919       .     D
C28   F50    1.35725       .     S
C29   C31    1.40158   1_455     S
C29   C39    1.40919       .     S
C29   F51    1.35707   1_455     S
C30   H6     1.08324       .     D
C30   C28    1.40137       .     S
C30   C32    1.40635       .     A
C31   H7     1.08321       .     A
C31   C29    1.40158   1_655     A
C31   C33    1.40635   1_655     A
C32   C13    1.48593       .     A
C32   C30    1.40635       .     A
C32   C34    1.40601       .     S
C33   C12    1.48618       .     A
C33   C31    1.40635   1_455     S
C33   C35    1.40601       .     A
C34   H8     1.08323       .     A
C34   C32    1.40601       .     A
C34   C36    1.40148       .     S
C35   H9     1.08323       .     A
C35   C33    1.40601       .     S
C35   C37    1.40148       .     S
C36   H10    1.08301       .     D
C36   C34    1.40148       .     S
C36   C38    1.40706       .     S
C37   H11    1.08301       .     D
C37   C35    1.40148       .     S
C37   C39    1.40723       .     S
C38   C28    1.40919       .     A
C38   C36    1.40706       .     A
C38   N41    1.45239       .     A
C39   C29    1.40919       .     S
C39   C37    1.40723       .     A
C39   N40    1.45219       .     S
N40   C14    1.37572       .     A
N40   C16    1.37526   1_565     A
N40   C39    1.45219       .     S
N41   C15    1.37577       .     S
N41   C17    1.37526   1_545     D
N41   C38    1.45239       .     S
O42   Zn1    5.59776   1_554     S
O42   C13    1.29557       .     S
O43   Zn0    5.61656   1_655     S
O43   C12    1.29544   1_655     S
O44   Zn1    5.72949   1_565     S
O44   C12    1.29821       .     S
O45   Zn0    5.74688   1_544     D
O45   C13    1.29834       .     D
O46   C14    1.34930       .     S
O47   C15    1.34925       .     D
O48   C16    1.34922       .     S
O49   C17    1.34922       .     D
F50   C28    1.35725       .     D
F51   C29    1.35707   1_655     S
H52   C58    1.08336       .     D
H53   C59    1.08352       .     S
H54   O68    0.98013   1_455     S
H55   O69    0.97959       .     S
H56   O70    0.98047   1_455     S
H57   O71    0.98005       .     S
C58   H52    1.08336       .     S
C58   C60    1.40189       .     S
C58   C65    1.39871       .     S
C59   H53    1.08352       .     S
C59   C61    1.40165       .     S
C59   C64    1.39879   1_554     S
C60   C58    1.40189       .     S
C60   N67    1.38252       .     D
C60   O71    1.37156       .     D
C61   C59    1.40165       .     S
C61   N66    1.38219   1_554     D
C61   O70    1.37171       .     S
C62   C64    1.42311       .     D
C62   N67    1.39037   1_545     D
C62   O69    1.37544       .     S
C63   C65    1.42318       .     D
C63   N66    1.39025   1_565     S
C63   O68    1.37540       .     S
C64   C59    1.39879   1_556     S
C64   C62    1.42311       .     S
C64   C65    1.39416   1_545     S
C65   C58    1.39871       .     S
C65   C63    1.42318       .     D
C65   C64    1.39416   1_565     S
N66   Zn0    2.42577   1_645     S
N66   C61    1.38219   1_556     S
N66   C63    1.39025   1_545     A
N67   Zn1    2.42878   1_565     A
N67   C60    1.38252       .     A
N67   C62    1.39037   1_565     S
O68   H54    0.98013   1_655     A
O68   C63    1.37540       .     S
O69   H55    0.97959       .     A
O69   C62    1.37544       .     A
O70   H56    0.98047   1_655     A
O70   C61    1.37171       .     A
O71   H57    0.98005       .     S
O71   C60    1.37156       .     A
H72   C87    1.08408       .     S
H73   C86    1.08400       .     A
H74   C85    1.08294       .     A
H75   C84    1.08305       .     S
H76   C82    1.08349       .     S
H77   C83    1.08359       .     D
C78   C80    1.49847       .     S
C78   O90    1.33404       .     D
C78   O92    1.34224       .     S
C79   C81    1.49844       .     S
C79   O91    1.33404       .     S
C79   O93    1.34215   1_455     A
C80   C78    1.49847       .     A
C80   C85    1.41193       .     A
C80   C87    1.40952   1_554     S
C81   C79    1.49844       .     A
C81   C84    1.41200       .     S
C81   C86    1.40897       .     A
C82   H76    1.08349       .     A
C82   C84    1.40027       .     A
C82   C89    1.40076       .     A
C83   H77    1.08359       .     S
C83   C85    1.39956   1_556     A
C83   C88    1.40036       .     S
C84   H75    1.08305       .     A
C84   C81    1.41200       .     A
C84   C82    1.40027       .     S
C85   H74    1.08294       .     S
C85   C80    1.41193       .     D
C85   C83    1.39956   1_554     S
C86   H73    1.08400       .     S
C86   C81    1.40897       .     S
C86   C88    1.41465       .     S
C87   H72    1.08408       .     S
C87   C80    1.40952   1_556     S
C87   C89    1.41501       .     S
C88   C83    1.40036       .     S
C88   C86    1.41465       .     S
C88   C89    1.41587       .     S
C89   C82    1.40076       .     S
C89   C87    1.41501       .     S
C89   C88    1.41587       .     S
O90   Zn1    2.44134   1_554     S
O90   C78    1.33404       .     S
O91   Zn0    2.45197       .     S
O91   C79    1.33404       .     S
O92   Zn1    4.81521   1_554     S
O92   C78    1.34224       .     S
O93   Zn0    4.81392   1_655     S
O93   C79    1.34215   1_655     S
