data_I
_chemical_name_common  'results/nh3_target_10mmol/cif/sample_4'
_cell_length_a 10.64873
_cell_length_b 15.64164
_cell_length_c 16.81372
_cell_angle_alpha 93.15292
_cell_angle_beta  90.91751
_cell_angle_gamma 90.87312
_space_group_name_H-M_alt      'P 1'


loop_
_space_group_symop_operation_xyz
  'x, y, z' 

loop_
_atom_site_label
_atom_site_fract_x
_atom_site_fract_y
_atom_site_fract_z
_atom_site_type_symbol
H0    0.9387208 0.5312564 0.67528015     H
H1    0.09999454 0.08563387 0.90836126     H
H2    0.7879137 0.31509757 0.55188185     H
H3    0.83507556 0.34003133 0.41179287     H
H4    0.03662789 0.40907583 0.37744504     H
H5    0.19123685 0.4536784 0.48401177     H
H6    0.14565146 0.43043464 0.62376535     H
H7    0.0031273365 0.37047502 0.9664369     H
H8    0.9561205 0.34555462 0.10654974     H
H9    0.7544807 0.27666238 0.1410085     H
H10   0.5996161 0.2322596 0.034543037     H
H11   0.8241963 0.59219617 0.73119587     H
H12   0.645038 0.25550097 0.89475006     H
H13   0.037931442 0.19521789 0.6095606     H
H14   0.012402415 0.05944483 0.52883697     H
H15   0.8193584 0.9705261 0.5392694     H
H16   0.65243447 0.016986031 0.6323799     H
H17   0.6767785 0.15124519 0.7142899     H
H18   0.7526401 0.49051508 0.90867704     H
H19   0.77804965 0.6262337 0.98949325     H
H20   0.9711782 0.7151172 0.9793361     H
H21   0.13829923 0.6686907 0.8863817     H
H22   0.69117695 0.5998811 0.6095699     H
H23   0.11407602 0.5344894 0.80436826     H
H24   0.8479682 0.64063305 0.59393346     H
H25   0.80201143 0.5351175 0.5534221     H
H26   0.96625185 0.09369844 0.7869687     H
H27   0.8521216 0.15457028 0.84337676     H
H28   0.9892251 0.15002772 0.96492463     H
H29   0.9433962 0.044646624 0.9240859     H
C30   0.8568429 0.33343193 0.83466655     C
C31   0.872898 0.2698127 0.7134793     C
C32   0.9178787 0.41593498 0.804934     C
C33   0.83593106 0.40690926 0.7285641     C
C34   0.95484567 0.2788384 0.7898493     C
C35   0.77473754 0.3249941 0.75809723     C
C36   0.016047716 0.36075822 0.7603238     C
C37   0.83648336 0.54400796 0.6810133     C
C38   0.7914306 0.5822564 0.60464215     C
C39   0.9543107 0.14172508 0.83734393     C
C40   0.99973553 0.10313776 0.9135078     C
C41   0.96519744 0.36775282 0.5983896     C
C42   0.87694186 0.34447095 0.5377016     C
C43   0.9031009 0.35875595 0.4582755     C
C44   0.01669538 0.39758453 0.43888852     C
C45   0.103958845 0.42252693 0.49895307     C
C46   0.07827282 0.40811986 0.5784224     C
C47   0.82566696 0.31800964 0.92003244     C
C48    0.91406 0.34118798 0.9806723     C
C49   0.8879884 0.32690996 0.060111046     C
C50   0.77433467 0.28817922 0.079555035     C
C51   0.6869333 0.2633326 0.019542575     C
C52   0.7125222 0.2777402 0.94005597     C
C53   0.85635597 0.18606158 0.6650392     C
C54   0.95243037 0.15759374 0.61417943     C
C55   0.93864715 0.08045013 0.56858826     C
C56   0.8299432 0.030271944 0.57450545     C
C57   0.73564476 0.056654636 0.62675756     C
C58   0.74904853 0.1338135 0.67236704     C
C59   0.93434846 0.49968937 0.8533948     C
C60   0.83816737 0.5281335 0.9041653     C
C61   0.8518941 0.6052427 0.949816     C
C62   0.9606484 0.6554023 0.94405144     C
C63   0.055054784 0.6290388 0.8918815     C
C64   0.041697383 0.55191404 0.84621197     C
C65   0.14909613 0.3675765 0.7667561     C
C66   0.64169765 0.31816483 0.75168043     C
C67   0.9339436 0.352316 0.68374753     C
O68   0.028175354 0.21520747 0.8239807     O
O69   0.21151435 0.31853026 0.72536045     O
O70   0.5792792 0.36721095 0.7930761     O
O71   0.5946857 0.3004711 0.6862505     O
O72   0.19610786 0.38527012 0.832186     O
O73   0.76259786 0.4705454 0.69445765     O
Zn74  0.32241002 0.3817778 0.82462126    Zn
Zn75  0.46853188 0.30152526 0.69254804    Zn
H76   0.22168519 0.72586524 0.72687894     H
H77   0.57124925 0.9565657 0.7868449     H
H78   0.20846984 0.9702258 0.67046845     H
H79   0.5844845 0.7122028 0.84322566     H
H80   0.24303298 0.124592304 0.6606203     H
H81   0.5499206 0.5578264 0.85307485     H
H82   0.19254693 0.57027906 0.7408898     H
H83   0.60038817 0.112161756 0.77283305     H
C84   0.5154346 0.0802927 0.7498395     C
C85   0.27750087 0.6021377 0.7638725     C
C86   0.49812138 0.99165976 0.7581153     C
C87   0.29481298 0.69077116 0.7556085     C
C88   0.38570338 0.950223 0.7296755     C
C89   0.40724012 0.7321967 0.78403455     C
C90   0.29588312 0.99948984 0.69272983     C
C91   0.49706244 0.6829391 0.8209672     C
C92   0.3161833 0.08729708 0.6865233     C
C93   0.4767534 0.5951324 0.82717663     C
N94   0.42442107 0.12654757 0.714727     N
N95   0.36852327 0.5558822 0.7989819     N
N96   0.35741365 0.8610055 0.7370628     N
N97   0.43552992 0.8214143 0.77664727     N
H98   0.2724222 0.40573704 0.5261572     H
H99   0.25616965 0.40654984 0.3813389     H
H100  0.14221303 0.31956354 0.14800322     H
H101  0.6124346 0.2593079 0.50542456     H
H102  0.5959549 0.26031014 0.3605839     H
H103  0.09436397 0.18425718 0.027770896     H
H104  0.89305973 0.15078744 0.95668054     H
H105  0.78850794 0.2612029 0.87984693     H
H106  0.5267804 0.4058325 0.008105002     H
H107  0.8851575 0.4058985 0.87466645     H
H108  0.08659861 0.44035906 0.94495237     H
H109  0.45241553 0.5239779 0.2329124     H
H110  0.6394812 0.5833219 0.30629474     H
H111  0.84918153 0.521888 0.28079683     H
H112  0.87173223 0.4004497 0.18126424     H
H113  0.685644 0.33947006 0.107861     H
C114  0.45059547 0.32696825 0.61394143     C
C115  0.22566254 0.33505395 0.03364483     C
C116  0.33423024 0.37401456 0.40765348     C
C117  0.34081644 0.36083972 0.90644675     C
C118  0.34376967 0.37411195 0.4905973     C
C119  0.42486694 0.33193842 0.35990006     C
C120  0.44330934 0.33226785 0.52691007     C
C121   0.53427 0.29178515 0.47908124     C
C122  0.52498895 0.29195875 0.39647636     C
C123  0.10564794 0.31441364 0.99073124     C
C124  0.04950802 0.23294726 0.9943662     C
C125  0.9356422 0.21383141 0.9541744     C
C126  0.8766303 0.27606422 0.91087604     C
C127  0.9311938 0.35762236  0.90787     C
C128  0.045300674 0.37688795 0.9476264     C
C129  0.55508393 0.4268598 0.16533884     C
C130  0.54336226 0.4962447 0.22139882     C
C131  0.64916015 0.5301548 0.26295987     C
C132  0.7673914 0.49556625 0.24855694     C
C133  0.780087 0.4271224 0.19241665     C
C134  0.67452776 0.39292088 0.15077725     C
C135  0.3362683 0.3581305 0.9937833     C
C136  0.44321215 0.38553318 0.03841576     C
C137  0.44285274 0.39011246 0.121668674     C
C138  0.33373708 0.36328351 0.16131705     C
C139  0.22644213 0.33725655 0.11701884     C
N140  0.32814708 0.36330068 0.2454679     N
N141  0.42186788 0.32979846 0.27542216     N
O142  0.53064734 0.27798063 0.6439733     O
O143  0.4072055 0.4187813 0.87600744     O
O144  0.37464797 0.3676171 0.6597171     O
O145  0.27380565 0.3094674 0.86117303     O
loop_
_geom_bond_atom_site_label_1
_geom_bond_atom_site_label_2
_geom_bond_distance
_geom_bond_site_symmetry_2
_ccdc_geom_bond_type
H0    C37    1.11454       .     S
H1    C40    1.10975   1_455     S
H2    C42    1.08292       .     S
H3    C43    1.08238       .     S
H4    C44    1.08209       .     S
H5    C45    1.08234       .     S
H6    C46    1.07863       .     S
H7    C48    1.08296   1_455     A
H8    C49    1.08234       .     A
H9    C50    1.08217       .     S
H10   C51    1.08241       .     S
H11   C37    1.11074       .     S
H12   C52    1.07861       .     A
H13   C54    1.08273   1_455     S
H14   C55    1.08261   1_455     S
H15   C56    1.08203   1_565     A
H16   C57    1.08234       .     A
H17   C58    1.07985       .     A
H18   C60    1.08271       .     A
H19   C61    1.08248       .     S
H20   C62    1.08198       .     A
H21   C63    1.08222       .     S
H22   C38    1.10990       .     S
H23   C64    1.07981       .     A
H24   C38    1.11061       .     S
H25   C38    1.11077       .     A
H26   C39    1.11097       .     A
H27   C39    1.11479       .     S
H28   C40    1.11071       .     S
H29   C40    1.11049       .     A
C30   C32    1.54710       .     S
C30   C34    1.53873       .     S
C30   C35    1.54306       .     S
C30   C47    1.50979       .     S
C31   C34    1.53970       .     S
C31   C35    1.54330       .     S
C31   C53    1.51046       .     S
C31   C67    1.54714       .     S
C32   C30    1.54710       .     S
C32   C33    1.53970       .     S
C32   C36    1.54326   1_655     D
C32   C59    1.51060       .     S
C33   C32    1.53970       .     S
C33   C35    1.53877       .     D
C33   C67    1.53880       .     S
C33   O73    1.41477       .     S
C34   C30    1.53873       .     S
C34   C31    1.53970       .     S
C34   C36    1.53882   1_655     S
C34   O68    1.41487   1_655     S
C35   C30    1.54306       .     S
C35   C31    1.54330       .     S
C35   C33    1.53877       .     S
C35   C66    1.42103       .     S
C36   C32    1.54326   1_455     A
C36   C34    1.53882   1_455     A
C36   C65    1.42113       .     A
C36   C67    1.54315   1_455     S
C37   H0     1.11454       .     A
C37   H11    1.11074       .     A
C37   C38    1.52003       .     S
C37   O73    1.41323       .     A
C38   H22    1.10990       .     A
C38   H24    1.11061       .     S
C38   H25    1.11077       .     A
C38   C37    1.52003       .     S
C39   H26    1.11097       .     S
C39   H27    1.11479       .     A
C39   C40    1.52062       .     A
C39   O68    1.41307   1_655     S
C40   H1     1.10975   1_655     S
C40   H28    1.11071       .     A
C40   H29    1.11049       .     S
C40   C39    1.52062       .     S
C41   C42    1.40536       .     A
C41   C46    1.40512   1_655     S
C41   C67    1.50990       .     S
C42   H2     1.08292       .     S
C42   C41    1.40536       .     S
C42   C43    1.39778       .     S
C43   H3     1.08238       .     S
C43   C42    1.39778       .     S
C43   C44    1.39655   1_655     S
C44   H4     1.08209       .     S
C44   C43    1.39655   1_455     S
C44   C45    1.39685       .     S
C45   H5     1.08234       .     S
C45   C44    1.39685       .     S
C45   C46    1.39782       .     S
C46   H6     1.07863       .     A
C46   C41    1.40512   1_455     A
C46   C45    1.39782       .     S
C47   C30    1.50979       .     S
C47   C48    1.40541       .     S
C47   C52    1.40533       .     A
C48   H7     1.08296   1_655     S
C48   C47    1.40541       .     S
C48   C49    1.39776   1_556     A
C49   H8     1.08234       .     A
C49   C48    1.39776   1_554     A
C49   C50    1.39669       .     A
C50   H9     1.08217       .     S
C50   C49    1.39669       .     A
C50   C51    1.39685       .     S
C51   H10    1.08241       .     S
C51   C50    1.39685       .     A
C51   C52    1.39789   1_554     S
C52   H12    1.07861       .     A
C52   C47    1.40533       .     A
C52   C51    1.39789   1_556     S
C53   C31    1.51046       .     S
C53   C54    1.40579       .     A
C53   C58    1.40568       .     S
C54   H13    1.08273   1_655     S
C54   C53    1.40579       .     S
C54   C55    1.39800       .     S
C55   H14    1.08261   1_655     S
C55   C54    1.39800       .     S
C55   C56    1.39658       .     S
C56   H15    1.08203   1_545     S
C56   C55    1.39658       .     S
C56   C57    1.39696       .     S
C57   H16    1.08234       .     D
C57   C56    1.39696       .     S
C57   C58    1.39803       .     S
C58   H17    1.07985       .     D
C58   C53    1.40568       .     S
C58   C57    1.39803       .     S
C59   C32    1.51060       .     S
C59   C60    1.40562       .     S
C59   C64    1.40550   1_655     S
C60   H18    1.08271       .     S
C60   C59    1.40562       .     S
C60   C61    1.39801       .     S
C61   H19    1.08248       .     S
C61   C60    1.39801       .     S
C61   C62    1.39657       .     A
C62   H20    1.08198       .     A
C62   C61    1.39657       .     A
C62   C63    1.39686   1_655     S
C63   H21    1.08222       .     A
C63   C62    1.39686   1_455     A
C63   C64    1.39805       .     S
C64   H23    1.07981       .     A
C64   C59    1.40550   1_455     A
C64   C63    1.39805       .     S
C65   C36    1.42113       .     A
C65   O69    1.21918       .     S
C65   O72    1.21742       .     S
C66   C35    1.42103       .     A
C66   O70    1.21918       .     A
C66   O71    1.21743       .     S
C67   C31    1.54714       .     S
C67   C33    1.53880       .     A
C67   C36    1.54315   1_655     S
C67   C41    1.50990       .     S
O68   C34    1.41487   1_455     A
O68   C39    1.41307   1_455     S
O69   C65    1.21918       .     S
O69   Zn74   2.20868       .     S
O70   C66    1.21918       .     S
O70   Zn75   2.23865       .     S
O71   C66    1.21743       .     S
O71   Zn75   1.34951       .     S
O72   C65    1.21742       .     S
O72   Zn74   1.35463       .     S
O73   C33    1.41477       .     S
O73   C37    1.41323       .     S
Zn74  O69    2.20868       .     A
Zn74  O72    1.35463       .     A
Zn74  Zn75   2.96508       .     A
Zn74  N95    2.81751       .     S
Zn74  O143   1.34198       .     S
Zn74  O145   1.41198       .     A
Zn75  O70    2.23865       .     S
Zn75  O71    1.34951       .     A
Zn75  Zn74   2.96508       .     D
Zn75  N94    2.81589       .     A
Zn75  O142   1.10987       .     A
Zn75  O144   1.56509       .     A
H76   C87    1.08222       .     A
H77   C86    1.08223       .     S
H78   C90    1.08310       .     S
H79   C91    1.08316       .     S
H80   C92    1.08060       .     A
H81   C93    1.08079       .     A
H82   C85    1.08163       .     A
H83   C84    1.08176       .     S
C84   H83    1.08176       .     S
C84   C86    1.41054   1_545     S
C84   N94    1.36431       .     S
C85   H82    1.08163       .     A
C85   C87    1.41051       .     A
C85   N95    1.36436       .     A
C86   H77    1.08223       .     S
C86   C84    1.41054   1_565     S
C86   C88    1.41624       .     A
C87   H76    1.08222       .     S
C87   C85    1.41051       .     A
C87   C89    1.41618       .     D
C88   C86    1.41624       .     A
C88   C90    1.39666       .     A
C88   N96    1.43565       .     A
C89   C87    1.41618       .     A
C89   C91    1.39649       .     S
C89   N97    1.43565       .     S
C90   H78    1.08310       .     S
C90   C88    1.39666       .     A
C90   C92    1.39693   1_565     A
C91   H79    1.08316       .     A
C91   C89    1.39649       .     S
C91   C93    1.39694       .     S
C92   H80    1.08060       .     D
C92   C90    1.39693   1_545     S
C92   N94    1.36352       .     S
C93   H81    1.08079       .     A
C93   C91    1.39694       .     A
C93   N95    1.36340       .     S
N94   Zn75   2.81589       .     S
N94   C84    1.36431       .     A
N94   C92    1.36352       .     A
N95   Zn74   2.81751       .     S
N95   C85    1.36436       .     A
N95   C93    1.36340       .     S
N96   C88    1.43565       .     A
N96   N97    1.24969       .     S
N97   C89    1.43565       .     S
N97   N96    1.24969       .     S
H98   C118   1.08299       .     S
H99   C116   1.08240       .     A
H100  C139   1.08432       .     A
H101  C121   1.08300       .     A
H102  C122   1.08327       .     S
H103  C124   1.08314   1_554     S
H104  C125   1.08229       .     A
H105  C126   1.08219       .     S
H106  C136   1.08452       .     A
H107  C127   1.08217       .     A
H108  C128   1.08319       .     S
H109  C130   1.08312       .     A
H110  C131   1.08234       .     A
H111  C132   1.08228       .     S
H112  C133   1.08225       .     S
H113  C134   1.08309       .     A
C114  C120   1.47109       .     A
C114  O142   1.27179       .     S
C114  O144   1.27768       .     A
C115  C123   1.48000   1_554     S
C115  C135   1.41621   1_554     A
C115  C139   1.40024       .     S
C116  H99    1.08240       .     A
C116  C118   1.39658       .     A
C116  C119   1.41259       .     S
C117  C135   1.47294       .     A
C117  O143   1.27522       .     S
C117  O145   1.27757       .     A
C118  H98    1.08299       .     S
C118  C116   1.39658       .     A
C118  C120   1.40324       .     D
C119  C116   1.41259       .     S
C119  C122   1.39557       .     A
C119  N141   1.41878       .     S
C120  C114   1.47109       .     S
C120  C118   1.40324       .     D
C120  C121   1.40482       .     S
C121  H101   1.08300       .     S
C121  C120   1.40482       .     A
C121  C122   1.39098       .     A
C122  H102   1.08327       .     S
C122  C119   1.39557       .     S
C122  C121   1.39098       .     A
C123  C115   1.48000   1_556     A
C123  C124   1.40407       .     S
C123  C128   1.40545       .     A
C124  H103   1.08314   1_556     S
C124  C123   1.40407       .     A
C124  C125   1.39885   1_455     S
C125  H104   1.08229       .     S
C125  C124   1.39885   1_655     S
C125  C126   1.39799       .     S
C126  H105   1.08219       .     A
C126  C125   1.39799       .     A
C126  C127   1.39750       .     A
C127  H107   1.08217       .     S
C127  C126   1.39750       .     S
C127  C128   1.39813   1_655     A
C128  H108   1.08319       .     S
C128  C123   1.40545       .     A
C128  C127   1.39813   1_455     A
C129  C130   1.40615       .     S
C129  C134   1.40563       .     A
C129  C137   1.48404       .     A
C130  H109   1.08312       .     S
C130  C129   1.40615       .     S
C130  C131   1.39811       .     A
C131  H110   1.08234       .     A
C131  C130   1.39811       .     S
C131  C132   1.39735       .     A
C132  H111   1.08228       .     S
C132  C131   1.39735       .     A
C132  C133   1.39740       .     S
C133  H112   1.08225       .     A
C133  C132   1.39740       .     A
C133  C134   1.39827       .     S
C134  H113   1.08309       .     A
C134  C129   1.40563       .     S
C134  C133   1.39827       .     A
C135  C115   1.41621   1_556     S
C135  C117   1.47294       .     A
C135  C136   1.40219   1_556     D
C136  H106   1.08452       .     S
C136  C135   1.40219   1_554     A
C136  C137   1.39775       .     S
C137  C129   1.48404       .     S
C137  C136   1.39775       .     S
C137  C138   1.41822       .     S
C138  C137   1.41822       .     S
C138  C139   1.39683       .     S
C138  N140   1.41708       .     S
C139  H100   1.08432       .     S
C139  C115   1.40024       .     S
C139  C138   1.39683       .     S
N140  C138   1.41708       .     S
N140  N141   1.24626       .     S
N141  C119   1.41878       .     S
N141  N140   1.24626       .     S
O142  Zn75   1.10987       .     S
O142  C114   1.27179       .     S
O143  Zn74   1.34198       .     S
O143  C117   1.27522       .     S
O144  Zn75   1.56509       .     S
O144  C114   1.27768       .     S
O145  Zn74   1.41198       .     S
O145  C117   1.27757       .     S
