data_I
_chemical_name_common  'results/nh3_target_10mmol/cif/sample_7'
_cell_length_a 11.12491
_cell_length_b 14.02604
_cell_length_c 16.54324
_cell_angle_alpha 90.79728
_cell_angle_beta  90.50558
_cell_angle_gamma 90.75354
_space_group_name_H-M_alt      'P 1'


loop_
_space_group_symop_operation_xyz
  'x, y, z' 

loop_
_atom_site_label
_atom_site_fract_x
_atom_site_fract_y
_atom_site_fract_z
_atom_site_type_symbol
Cu0   0.44607472 0.97944057 0.89779127    Cu
Cu1   0.25417522 0.85832465 0.89110935    Cu
C2    0.9540708 0.8812251 0.85122055     C
C3    0.71995765 0.9624893 0.8982687     C
C4    0.78116417 0.8923239 0.933586     C
C5    0.85703504 0.83635134 0.88218737     C
C6    0.055020213 0.8308135 0.81974417     C
C7    0.6201791 0.0060236454 0.9363313     C
F8     0.73207 0.97870624 0.8181575     F
F9    0.9729461 0.97523737 0.86743283     F
H10   0.6709771 0.7335021 0.049067855     H
H11   0.8699775 0.6443825 0.9633102     H
O12    0.55775 0.94251686 0.9721234     O
O13   0.88265043 0.8050828 0.06005323     O
O14   0.778092 0.9539535 0.08851886     O
O15   0.65021724 0.80110514 0.05884552     O
O16   0.6774729 0.7057757 0.88653547     O
O17   0.8086822 0.70089626 0.7689956     O
O18   0.88917184 0.637199 0.9052838     O
O19   0.042179465 0.74251884 0.8110901     O
O20   0.15749109 0.87329733 0.82122105     O
O21   0.6374327 0.08885288 0.9725477     O
S22   0.77589643 0.8639546 0.03813052     S
S23   0.8046458 0.71839184 0.85877293     S
H24   0.46000037 0.5339653 0.6715698     H
H25   0.19702889 0.29461265 0.10004854     H
H26   0.6422385 0.26025176 0.6374389     H
H27   0.2199234 0.5727407 0.7871572     H
H28   0.027940402 0.5648344 0.13464618     H
H29   0.58298266 0.1317584 0.70893407     H
H30   0.34185496 0.17161131 0.8978015     H
C31   0.53238505 0.2786756 0.7272866     C
C32   0.533137 0.18150553 0.74568474     C
C33   0.40109187 0.20510162 0.85507995     C
C34   0.40700504 0.30448872 0.8460709     C
C35   0.46154866 0.34026587 0.77516186     C
C36   0.35328344 0.3680076 0.90231097     C
C37   0.3321683 0.46315944 0.8785266     C
C38   0.35658816 0.48886445 0.79726434     C
C39   0.43511477 0.4334851 0.7505021     C
C40   0.32192272 0.34056303 0.9818634     C
C41   0.24436802 0.3975146 0.027978897     C
C42   0.22513208 0.4926902 0.0049318075     C
C43   0.28438893 0.52873486 0.93598294     C
C44   0.1545584 0.55430794 0.052406788     C
C45   0.16094008 0.65299255 0.037706137     C
C46   0.29895934 0.6291306 0.93047583     C
C47   0.39332664 0.6716539 0.8829673     C
C48   0.09855769 0.71867204 0.08981717     C
C49   0.3830412 0.26376978 0.022491932     C
N50   0.4645083 0.1475102 0.8062731     N
N51   0.4319491 0.20264675 0.054946303     N
N52   0.23483992 0.68754953 0.9792098     N
N53   0.4692595 0.70523584 0.84483594     N
N54   0.04820064 0.7702092 0.1325872     N
O55   0.47474858 0.4647738 0.676302     O
O56   0.19825864 0.36526206 0.1002723     O
O57   0.5977461 0.31331638 0.66312635     O
O58   0.29713237 0.561939 0.75923973     O
O59   0.08239064 0.516317 0.11217928     O
H60   0.9955537 0.9314185 0.46780008     H
H61   0.9962542 0.008756518 0.27135837     H
H62   0.45016295 0.7975531 0.55008656     H
H63   0.53961086 0.97500694 0.44731697     H
H64   0.18088202 0.007692814 0.21900035     H
H65   0.60842144 0.9979914 0.19627947     H
H66   0.08821979 0.9214191 0.6657504     H
H67   0.6789857 0.0034872293 0.33762965     H
C68   0.38175556 0.95933306 0.14464055     C
C69   0.09104832 0.92090464 0.4767363     C
C70   0.2563222 0.8807216 0.5656536     C
C71   0.5437387 0.9913293 0.24451816     C
C72   0.5844734 0.9918799 0.3241699     C
C73   0.5043036 0.97288203 0.38626802     C
C74   0.38070863 0.95628476 0.36934513     C
C75   0.33780438 0.9730992 0.29078585     C
C76   0.297643 0.92718595 0.42849517     C
C77   0.17251363  0.93902 0.41447166     C
C78   0.1309379 0.9704693 0.33919802     C
C79   0.21368536 0.98435223 0.2771861     C
C80   0.31106105 0.8819174 0.64583343     C
C81   0.3351374 0.883568 0.50006396     C
C82   0.13223423 0.8989396 0.55378336     C
C83   0.42074478 0.9792816 0.22745115     C
O84   0.4396292 0.00063991547 0.08634966     O
O85   0.4473844 0.8422222 0.50422126     O
O86   0.048826326 0.89932436 0.61504436     O
O87   0.2934461 0.89771086 0.13284431     O
O88   0.40497464 0.93802834  0.65694     O
O89   0.25879157 0.83509934 0.7034347     O
O90   0.009653487 0.98598033 0.3271749     O
loop_
_geom_bond_atom_site_label_1
_geom_bond_atom_site_label_2
_geom_bond_distance
_geom_bond_site_symmetry_2
_ccdc_geom_bond_type
Cu0   Cu1    2.71126       .     S
Cu0   O12    1.82525       .     S
Cu0   O21    2.86902   1_565     D
Cu0   N50    2.82550   1_565     S
Cu0   O84    3.13093   1_566     S
Cu0   O88    4.03966       .     S
Cu1   Cu0    2.71126       .     S
Cu1   O19    3.12045       .     S
Cu1   O20    1.59013       .     S
Cu1   N52    2.82791       .     S
Cu1   O87    4.04846   1_556     S
Cu1   O89    3.11822       .     S
C2    C5     1.35085       .     S
C2    C6     1.43294   1_655     S
C2    F9     1.35524       .     S
C3    C4     1.34170       .     S
C3    C7     1.42161   1_565     S
C3    F8     1.35538       .     S
C4    C3     1.34170       .     S
C4    C5     1.43642       .     S
C4    S22    1.78137   1_556     S
C5    C2     1.35085       .     D
C5    C4     1.43642       .     S
C5    S23    1.78324       .     D
C6    C2     1.43294   1_455     S
C6    O19    1.25086       .     S
C6    O20    1.27924       .     S
C7    C3     1.42161   1_545     S
C7    O12    1.27752   1_545     S
C7    O21    1.31082       .     S
F8    C3     1.35538       .     S
F9    C2     1.35524       .     S
H10   O15    0.99032       .     S
H11   O18    0.98931       .     S
O12   Cu0    1.82525       .     S
O12   C7     1.27752   1_565     S
O13   S22    1.50012       .     S
O14   S22    1.50282       .     S
O15   H10    0.99032       .     S
O15   S22    1.68341       .     S
O16   S23    1.50034       .     S
O17   S23    1.50313       .     S
O18   H11    0.98931       .     D
O18   S23    1.67719       .     S
O19   Cu1    3.12045       .     T
O19   C6     1.25086       .     S
O20   Cu1    1.59013       .     S
O20   C6     1.27924       .     S
O21   Cu0    2.86902   1_545     S
O21   C7     1.31082       .     S
S22   C4     1.78137   1_554     A
S22   O13    1.50012       .     A
S22   O14    1.50282       .     A
S22   O15    1.68341       .     T
S23   C5     1.78324       .     A
S23   O16    1.50034       .     A
S23   O17    1.50313       .     A
S23   O18    1.67719       .     S
H24   O55    0.99043       .     A
H25   O56    0.99080       .     A
H26   O57    0.99204       .     A
H27   O58    0.99122       .     S
H28   O59    0.98790       .     A
H29   C32    1.08089       .     T
H30   C33    1.07878       .     A
C31   C32    1.40073       .     A
C31   C35    1.41579       .     A
C31   O57    1.38206       .     S
C32   H29    1.08089       .     A
C32   C31    1.40073       .     A
C32   N50    1.35357       .     A
C33   H30    1.07878       .     S
C33   C34    1.40476       .     A
C33   N50    1.34501       .     S
C34   C33    1.40476       .     A
C34   C35    1.42022       .     A
C34   C36    1.42032       .     A
C35   C31    1.41579       .     S
C35   C34    1.42022       .     A
C35   C39    1.40900       .     S
C36   C34    1.42032       .     S
C36   C37    1.41859       .     S
C36   C40    1.42147       .     S
C37   C36    1.41859       .     T
C37   C38    1.42422       .     S
C37   C43    1.42458       .     S
C38   C37    1.42422       .     S
C38   C39    1.40642       .     S
C38   O58    1.38281       .     S
C39   C35    1.40900       .     A
C39   C38    1.40642       .     A
C39   O55    1.38320       .     A
C40   C36    1.42147       .     T
C40   C41    1.40616   1_556     A
C40   C49    1.45106   1_556     A
C41   C40    1.40616   1_554     A
C41   C42    1.41190       .     S
C41   O56    1.38488       .     A
C42   C41    1.41190       .     A
C42   C43    1.41837   1_554     A
C42   C44    1.41068       .     S
C43   C37    1.42458       .     A
C43   C42    1.41837   1_556     T
C43   C46    1.41961       .     A
C44   C42    1.41068       .     A
C44   C45    1.40966       .     A
C44   O59    1.38699       .     S
C45   C44    1.40966       .     A
C45   C48    1.44179       .     A
C45   N52    1.36525   1_554     A
C46   C43    1.41961       .     S
C46   C47    1.44455       .     A
C46   N52    1.35549       .     S
C47   C46    1.44455       .     A
C47   N53    1.15784       .     A
C48   C45    1.44179       .     A
C48   N54    1.15777       .     S
C49   C40    1.45106   1_554     A
C49   N51    1.15724       .     S
N50   Cu0    2.82550   1_545     S
N50   C32    1.35357       .     S
N50   C33    1.34501       .     S
N51   C49    1.15724       .     S
N52   Cu1    2.82791       .     S
N52   C45    1.36525   1_556     S
N52   C46    1.35549       .     S
N53   C47    1.15784       .     A
N54   C48    1.15777       .     A
O55   H24    0.99043       .     S
O55   C39    1.38320       .     A
O56   H25    0.99080       .     A
O56   C41    1.38488       .     A
O57   H26    0.99204       .     A
O57   C31    1.38206       .     D
O58   H27    0.99122       .     S
O58   C38    1.38281       .     S
O59   H28    0.98790       .     D
O59   C44    1.38699       .     S
H60   C69    1.08360   1_655     A
H61   O90    0.99194   1_645     S
H62   O85    0.99123       .     A
H63   C73    1.08029       .     A
H64   C79    1.08288   1_545     A
H65   C71    1.08343       .     A
H66   O86    0.98715       .     A
H67   C72    1.08258   1_545     A
C68   C83    1.45563       .     S
C68   O84    1.30262   1_565     A
C68   O87    1.31144       .     A
C69   H60    1.08360   1_455     S
C69   C77    1.40166       .     A
C69   C82    1.39062       .     S
C70   C80    1.45444       .     S
C70   C81    1.40173       .     S
C70   C82    1.41966       .     S
C71   H65    1.08343       .     S
C71   C72    1.38954       .     S
C71   C83    1.40224       .     S
C72   H67    1.08258   1_565     S
C72   C71    1.38954       .     A
C72   C73    1.39260       .     A
C73   H63    1.08029       .     S
C73   C72    1.39260       .     A
C73   C74    1.41638       .     A
C74   C73    1.41638       .     A
C74   C75    1.40464       .     A
C74   C76    1.41252       .     D
C75   C74    1.40464       .     S
C75   C79    1.40834       .     S
C75   C83    1.40506       .     D
C76   C74    1.41252       .     S
C76   C77    1.42149       .     A
C76   C81    1.40294       .     S
C77   C69    1.40166       .     A
C77   C76    1.42149       .     A
C77   C78    1.40346       .     A
C78   C77    1.40346       .     A
C78   C79    1.39831       .     A
C78   O90    1.38262       .     A
C79   H64    1.08288   1_565     S
C79   C75    1.40834       .     A
C79   C78    1.39831       .     A
C80   C70    1.45444       .     S
C80   O88    1.30984       .     A
C80   O89    1.30175       .     S
C81   C70    1.40173       .     S
C81   C76    1.40294       .     S
C81   O85    1.38529       .     S
C82   C69    1.39062       .     S
C82   C70    1.41966       .     S
C82   O86    1.38011       .     S
C83   C68    1.45563       .     S
C83   C71    1.40224       .     S
C83   C75    1.40506       .     S
O84   Cu0    3.13093   1_544     S
O84   C68    1.30262   1_545     S
O85   H62    0.99123       .     S
O85   C81    1.38529       .     S
O86   H66    0.98715       .     S
O86   C82    1.38011       .     S
O87   Cu1    4.04846   1_554     S
O87   C68    1.31144       .     S
O88   Cu0    4.03966       .     S
O88   C80    1.30984       .     S
O89   Cu1    3.11822       .     S
O89   C80    1.30175       .     S
O90   H61    0.99194   1_465     S
O90   C78    1.38262       .     S
