data_I
_chemical_name_common  'results/nh3_target_10mmol/cif/sample_8'
_cell_length_a 17.32021
_cell_length_b 18.04381
_cell_length_c 18.28051
_cell_angle_alpha 74.60684
_cell_angle_beta  64.69043
_cell_angle_gamma 68.87546
_space_group_name_H-M_alt      'P 1'


loop_
_space_group_symop_operation_xyz
  'x, y, z' 

loop_
_atom_site_label
_atom_site_fract_x
_atom_site_fract_y
_atom_site_fract_z
_atom_site_type_symbol
H0    0.8327775 0.80371916 0.96354157     H
H1    0.97680473 0.82159567 0.70185626     H
H2    0.022823691 0.5545663 0.9716081     H
H3    0.041246295 0.54777855 0.79799116     H
H4    0.05128646 0.67874247 0.714977     H
H5    0.9649893 0.43564656 0.05404651     H
H6    0.1330918 0.2967767 0.80787504     H
H7    0.14094472 0.428815 0.8009786     H
H8     0.90561 0.661421 0.975935     H
H9    0.9656372 0.2975225 0.06379545     H
C10   0.86014974 0.9096988 0.82491636     C
C11   0.05998087 0.20149772 0.9426694     C
C12   0.8991327 0.82335967 0.83186686     C
C13   0.049916983 0.28638822 0.93652743     C
C14   0.8803987 0.77724737 0.9088542     C
C15   0.09756625 0.32524723 0.86263376     C
C16   0.9236284 0.69607025 0.91612196     C
C17   0.101466894 0.40129608 0.8585011     C
C18   0.98670083 0.6604662 0.84637314     C
C19   0.05205977 0.4423488 0.92682576     C
C20   0.00412786 0.7060544 0.7693948     C
C21   0.0041253567 0.40418708 0.0010310411     C
C22   0.96082723 0.78721607 0.7620456     C
C23   0.0030807257 0.32627174 0.0059816837     C
C24   0.027478933 0.57435143 0.8506339     C
C25   0.03805232 0.5283606 0.9182765     C
O26   0.88062733 0.9500387 0.75130236     O
O27   0.03594041 0.16113295 0.01614976     O
O28   0.8129562 0.9428249 0.8926507     O
O29   0.10361159 0.16834661 0.87480146     O
H30   0.7520808 0.973763 0.8933584     H
H31   0.7374228 0.090254486 0.6580422     H
H32   0.47380453 0.016448975 0.96255714     H
H33   0.4857146 0.9823293 0.80071485     H
H34   0.5991817 0.055509556 0.6968485     H
H35   0.33574668 0.9827303 0.07091308     H
H36   0.3525252 0.07531321 0.82248956     H
H37   0.6182753 0.93673646 0.9296954     H
H38   0.19450888 0.096784174 0.8642394     H
H39   0.17540525 0.0063297004 0.11392152     H
C40   0.8359747 0.05445333 0.7524241     C
C41   0.08070806 0.05845577 0.01486814     C
C42   0.7523713 0.03780468 0.7742829     C
C43   0.17375855 0.05181174 0.9918552     C
C44   0.7189742 0.99301535 0.85012895     C
C45   0.22446345 0.0716551 0.9099565     C
C46   0.6431496 0.97104234 0.87064993     C
C47   0.3150263 0.058134723 0.88587004     C
C48   0.5982019 0.9956119 0.8165508     C
C49   0.3558895 0.023534555 0.9433843     C
C50   0.63360584 0.03656956 0.7390486     C
C51   0.30483663 0.007534557 0.02585125     C
C52   0.7109316 0.057662282 0.7177515     C
C53   0.213798 0.02137625 0.0501796     C
C54   0.5082318 0.98982465 0.8446657     C
C55   0.45114988 0.007943609 0.9191592     C
O56   0.88333774 0.07052425 0.67665446     O
O57   0.032616682 0.04449385 0.09066486     O
O58   0.8662173 0.041288175 0.8091164     O
O59   0.049737077 0.0737299 0.95820296     O
Cu60  0.9303469 0.036034264 0.96306133    Cu
Cu61  0.9868805 0.07450959 0.8055517    Cu
H62   0.94294184 0.19691141 0.19456732     H
H63   0.97163165 0.9171362 0.57822084     H
H64   0.9659623 0.9448557 0.23035534     H
H65   0.94861114 0.16919196 0.54243284     H
H66   0.96479356 0.9599605 0.092682675     H
H67   0.94977564 0.1540835 0.6801094     H
H68   0.053143144 0.94658506 0.30232298     H
H69   0.8614302 0.16746265 0.47046515     H
H70   0.05653608 0.93626773 0.43678278     H
H71   0.8580375 0.17777993 0.3360053     H
C72   0.94591063 0.15021266 0.096174255     C
C73   0.9686585 0.9638313 0.67661786     C
C74   0.9467376 0.14415534 0.17405885     C
C75   0.9678359 0.96989226 0.59872925     C
C76   0.954223 0.07003453 0.224356     C
C77   0.9603505 0.044013113 0.5484321     C
C78   0.9610346 0.0031364516 0.19376084     C
C79   0.953539 0.11091124 0.57902724     C
C80   0.9598834 0.011635068 0.115533285     C
C81   0.9546901 0.10241256 0.6572548     C
C82   0.010236502 0.99492425 0.3386119     C
C83   0.9043327 0.11911981 0.43418002     C
C84   0.012214184 0.9890745 0.41598025     C
C85   0.9023595 0.12497316 0.35680783     C
C86   0.9592303 0.051035926 0.4650953     C
C87   0.95534766 0.06301546 0.3076888     C
C88   0.9385199 0.22683422 0.04602872     C
C89   0.97604364 0.88722295 0.7267616     C
N90   0.952376 0.08431796 0.068162926     N
N91   0.96219754 0.02972971 0.7046251     N
N92   0.9325497 0.28866556 0.005959737     N
N93   0.9820239 0.8253821 0.7668284     N
loop_
_geom_bond_atom_site_label_1
_geom_bond_atom_site_label_2
_geom_bond_distance
_geom_bond_site_symmetry_2
_ccdc_geom_bond_type
H0    C14    1.08277       .     D
H1    C22    1.08309       .     S
H2    C25    1.08564       .     S
H3    C24    1.08591       .     A
H4    C20    1.08398       .     A
H5    C21    1.08350   1_655     S
H6    C15    1.07846       .     S
H7    C17    1.08287       .     A
H8    C16    1.08157       .     A
H9    C23    1.08261   1_655     S
C10   C12    1.45228       .     A
C10   O26    1.31320       .     S
C10   O28    1.31680       .     A
C11   C13    1.45679       .     S
C11   O27    1.31498   1_556     S
C11   O29    1.31706       .     D
C12   C10    1.45228       .     S
C12   C14    1.40027       .     S
C12   C22    1.40347       .     A
C13   C11    1.45679       .     A
C13   C15    1.39947       .     S
C13   C23    1.40415   1_556     S
C14   H0     1.08277       .     A
C14   C12    1.40027       .     A
C14   C16    1.38383       .     S
C15   H6     1.07846       .     A
C15   C13    1.39947       .     S
C15   C17    1.37864       .     A
C16   H8     1.08157       .     S
C16   C14    1.38383       .     D
C16   C18    1.40353       .     S
C17   H7     1.08287       .     D
C17   C15    1.37864       .     S
C17   C19    1.40051       .     S
C18   C16    1.40353       .     A
C18   C20    1.39616   1_655     A
C18   C24    1.45295   1_655     S
C19   C17    1.40051       .     S
C19   C21    1.39886   1_556     A
C19   C25    1.45746       .     A
C20   H4     1.08398       .     S
C20   C18    1.39616   1_455     A
C20   C22    1.38391   1_455     S
C21   H5     1.08350   1_455     A
C21   C19    1.39886   1_554     S
C21   C23    1.39084       .     S
C22   H1     1.08309       .     D
C22   C12    1.40347       .     S
C22   C20    1.38391   1_655     S
C23   H9     1.08261   1_455     A
C23   C13    1.40415   1_554     A
C23   C21    1.39084       .     S
C24   H3     1.08591       .     S
C24   C18    1.45295   1_455     A
C24   C25    1.33811       .     A
C25   H2     1.08564       .     S
C25   C19    1.45746       .     A
C25   C24    1.33811       .     S
O26   C10    1.31320       .     A
O26   Cu61   3.89058   1_565     S
O27   C11    1.31498   1_554     D
O27   Cu60   3.87790   1_454     S
O28   C10    1.31680       .     D
O28   Cu60   3.80409   1_565     S
O29   C11    1.31706       .     S
O29   Cu61   3.78825   1_455     A
H30   C44    1.08264       .     A
H31   C52    1.08318       .     S
H32   C55    1.08679       .     S
H33   C54    1.08606       .     A
H34   C50    1.08344       .     A
H35   C51    1.08358   1_565     S
H36   C47    1.08230       .     A
H37   C46    1.08340       .     S
H38   C45    1.08315       .     A
H39   C53    1.08321       .     S
C40   C42    1.44975       .     S
C40   O56    1.28929       .     D
C40   O58    1.28399       .     S
C41   C43    1.44796   1_554     S
C41   O57    1.28697       .     S
C41   O59    1.28597   1_554     A
C42   C40    1.44975       .     A
C42   C44    1.40232   1_545     S
C42   C52    1.40134       .     A
C43   C41    1.44796   1_556     A
C43   C45    1.39957       .     S
C43   C53    1.40219   1_556     A
C44   H30    1.08264       .     S
C44   C42    1.40232   1_565     A
C44   C46    1.37760       .     S
C45   H38    1.08315       .     D
C45   C43    1.39957       .     S
C45   C47    1.38003       .     D
C46   H37    1.08340       .     S
C46   C44    1.37760       .     S
C46   C48    1.39908       .     A
C47   H36    1.08230       .     A
C47   C45    1.38003       .     S
C47   C49    1.40193       .     S
C48   C46    1.39908       .     A
C48   C50    1.39908   1_565     A
C48   C54    1.45168       .     S
C49   C47    1.40193       .     A
C49   C51    1.39682   1_556     S
C49   C55    1.45064       .     A
C50   H34    1.08344       .     S
C50   C48    1.39908   1_545     S
C50   C52    1.39035       .     D
C51   H35    1.08358   1_545     S
C51   C49    1.39681   1_554     S
C51   C53    1.38636       .     S
C52   H31    1.08318       .     A
C52   C42    1.40134       .     A
C52   C50    1.39035       .     S
C53   H39    1.08321       .     A
C53   C43    1.40219   1_554     A
C53   C51    1.38636       .     S
C54   H33    1.08606       .     A
C54   C48    1.45168       .     S
C54   C55    1.33829   1_565     A
C55   H32    1.08679       .     S
C55   C49    1.45064       .     D
C55   C54    1.33829   1_545     S
O56   C40    1.28929       .     S
O56   Cu61   3.54536       .     S
O57   C41    1.28697       .     T
O57   Cu60   3.53822   1_454     S
O58   C40    1.28399       .     S
O58   Cu60   3.40845       .     S
O59   C41    1.28597   1_556     S
O59   Cu61   3.39680   1_455     S
Cu60  O27    3.87790   1_656     S
Cu60  O28    3.80409   1_545     A
Cu60  O57    3.53822   1_656     A
Cu60  O58    3.40845       .     A
Cu60  Cu61   2.59800       .     A
Cu60  N90    2.52013   1_556     A
Cu61  O26    3.89058   1_545     A
Cu61  O29    3.78825   1_655     A
Cu61  O56    3.54536       .     A
Cu61  O59    3.39680   1_655     A
Cu61  Cu60   2.59800       .     A
Cu61  N91    2.44017       .     S
H62   C74    1.08365       .     A
H63   C75    1.08365       .     A
H64   C78    1.08228   1_565     S
H65   C79    1.08228       .     A
H66   C80    1.08182   1_565     A
H67   C81    1.08178       .     A
H68   C82    1.08239       .     A
H69   C83    1.08239       .     S
H70   C84    1.08251       .     S
H71   C85    1.08251       .     A
C72   C74    1.40462       .     S
C72   C88    1.43808       .     S
C72   N90    1.36626       .     A
C73   C75    1.40465       .     S
C73   C89    1.43788       .     S
C73   N91    1.36631   1_565     T
C74   H62    1.08365       .     T
C74   C72    1.40462       .     S
C74   C76    1.40535       .     S
C75   H63    1.08365       .     S
C75   C73    1.40465       .     S
C75   C77    1.40535   1_565     S
C76   C74    1.40535       .     S
C76   C78    1.40824       .     A
C76   C87    1.50274       .     A
C77   C75    1.40535   1_545     A
C77   C79    1.40825       .     A
C77   C86    1.50277       .     A
C78   H64    1.08228   1_545     A
C78   C76    1.40824       .     A
C78   C80    1.40523       .     A
C79   H65    1.08228       .     A
C79   C77    1.40825       .     A
C79   C81    1.40523       .     S
C80   H66    1.08182   1_545     A
C80   C78    1.40523       .     A
C80   N90    1.36279       .     S
C81   H67    1.08178       .     A
C81   C79    1.40523       .     A
C81   N91    1.36279       .     A
C82   H68    1.08239       .     A
C82   C84    1.40436       .     S
C82   C87    1.40775   1_465     S
C83   H69    1.08239       .     A
C83   C85    1.40438       .     S
C83   C86    1.40769       .     S
C84   H70    1.08251       .     A
C84   C82    1.40436       .     S
C84   C86    1.40966   1_465     S
C85   H71    1.08251       .     T
C85   C83    1.40438       .     S
C85   C87    1.40966       .     S
C86   C77    1.50277       .     S
C86   C83    1.40769       .     S
C86   C84    1.40966   1_645     S
C87   C76    1.50274       .     S
C87   C82    1.40775   1_645     S
C87   C85    1.40966       .     S
C88   C72    1.43808       .     S
C88   N92    1.15746       .     S
C89   C73    1.43788       .     S
C89   N93    1.15758       .     S
N90   Cu60   2.52013   1_554     S
N90   C72    1.36626       .     S
N90   C80    1.36279       .     S
N91   Cu61   2.44017       .     S
N91   C73    1.36631   1_545     S
N91   C81    1.36279       .     S
N92   C88    1.15746       .     S
N93   C89    1.15758       .     S
