data_I
_chemical_name_common  'results/nh3_target_10mmol/cif/sample_2'
_cell_length_a  9.64459
_cell_length_b 13.23067
_cell_length_c 18.19548
_cell_angle_alpha 94.00819
_cell_angle_beta  92.27608
_cell_angle_gamma 92.38447
_space_group_name_H-M_alt      'P 1'


loop_
_space_group_symop_operation_xyz
  'x, y, z' 

loop_
_atom_site_label
_atom_site_fract_x
_atom_site_fract_y
_atom_site_fract_z
_atom_site_type_symbol
H0    0.70045274 0.8696637 0.81476367     H
H1    0.18589401 0.05127132 0.94674915     H
H2    0.7041915 0.07376909 0.0030198097     H
H3    0.18500984 0.86255693 0.7517433     H
H4    0.883938 0.67327684 0.7098645     H
H5    0.04829502 0.7104573 0.7527976     H
H6    0.9340164 0.7575614 0.597763     H
H7    0.09602654 0.8112665 0.6369317     H
H8    0.18514955 0.63823307 0.64652836     H
H9    0.12848651 0.6579316 0.553103     H
H10   0.020078182 0.58262014 0.6089403     H
H11    0.97358 0.25710595 0.059423566     H
H12   0.84029055 0.2261548 0.9900992     H
H13   0.15651095 0.24474585 0.96448964     H
H14   0.021953225 0.21814585 0.89336354     H
H15   0.920138 0.3848883 0.92565984     H
H16   0.09999645 0.40051758 0.90345436     H
H17   0.053096056 0.41221654 0.99839973     H
C18   0.97956735 0.8803813 0.795636     C
C19   0.9067175 0.048329234 0.9607341     C
C20   0.12627327 0.8965104 0.79549134     C
C21   0.7610601 0.032859445 0.9617379     C
C22   0.12715745 0.0038679838 0.904907     C
C23   0.75970757 0.91849256 0.8558582     C
C24   0.98065746 0.9940341 0.9068028     C
C25   0.9063142 0.9303633 0.85225475     C
C26   0.9661624 0.73503053 0.71387047     C
C27   0.021573782 0.74500275 0.63685334     C
C28   0.09324372 0.649795 0.6098273     C
C29   0.95109826 0.21396875 0.005371928     C
C30   0.046470165 0.25738835 0.94864506     C
C31   0.028476954 0.37080348 0.9439087     C
N32   0.690123 0.968466 0.91053003     N
N33   0.19703162 0.9552893 0.85007393     N
O34   0.90377927 0.8257368 0.73818606     O
O35   0.9778645 0.11116934 0.014928579     O
H36   0.18137345 0.28310835 0.930709     H
H37   0.6948972 0.64611566 0.82848006     H
H38   0.3464398 0.18952884 0.72381383     H
H39   0.33936837 0.31461936 0.6904749     H
H40   0.45645335 0.22449839 0.65163183     H
H41   0.5832126 0.35023466 0.7309527     H
H42   0.5948904 0.23209836 0.77171874     H
H43   0.54072577 0.61606884 0.07117224     H
H44   0.5332506 0.7395912 0.035467505     H
H45   0.4232211 0.7074456 0.10817766     H
H46   0.28302932 0.6945363 0.9894295     H
H47   0.29900885 0.57688445 0.03079629     H
H48   0.7468417 0.36897302 0.9042959     H
H49   0.84536695 0.48971602 0.9073916     H
H50   0.894934 0.298675 0.8065262     H
H51   0.9924214 0.41823483 0.8074552     H
H52   0.070008874 0.4034111 0.9384673     H
H53   0.11269152 0.2921812 0.88201314     H
H54   0.96611995 0.2876619 0.9407847     H
H55   0.9511504 0.49888724 0.920538     H
H56   0.030487873 0.40841505 0.86023045     H
H57   0.097602606 0.64098865 0.8752184     H
H58   0.17363746 0.551849 0.8107358     H
H59   0.93641686 0.50393623 0.7532084     H
H60   0.984491 0.63638425 0.74857664     H
H61   0.8632868 0.5982554 0.81565595     H
C62   0.49789608 0.7546774 0.89123976     C
C63   0.37950066 0.17349513 0.869587     C
C64   0.60896033 0.49693996 0.8391578     C
C65   0.26869944 0.43225706 0.92020655     C
C66   0.61214024 0.6012676 0.85087496     C
C67   0.26473433 0.32761168 0.9085407     C
C68   0.41558212 0.5894504 0.9299414     C
C69   0.46365482 0.33854592 0.83095056     C
C70   0.39086673 0.48751968 0.90405434     C
C71   0.48837554 0.44056067 0.8567451     C
C72   0.36768746 0.28115383 0.86858016     C
C73   0.5100396 0.6471604 0.89173305     C
C74   0.5236556 0.2931762 0.7598607     C
C75   0.40912604 0.2528988 0.7033502     C
C76   0.3561505 0.6346185 0.0012631416     C
C77   0.47068927 0.6770673 0.057035565     C
C78   0.80704135 0.42200553 0.8711843     C
C79   0.93196106 0.36736143 0.8416857     C
C80   0.02607739 0.33570763 0.9046623     C
C81   0.049083367 0.48264283 0.89282024     C
C82   0.07913022 0.56778777 0.84174895     C
C83   0.9579685 0.5769528 0.78646386     C
O84   0.37524393 0.790008 0.8884427     O
O85   0.5021373 0.13812706 0.8727552     O
O86   0.6096582 0.81123763 0.89241314     O
O87   0.26772308 0.11689733 0.8687847     O
O88   0.72456247 0.4520348 0.8113542     O
O89   0.15505959 0.47956687 0.9486535     O
Cu90  0.30241734 0.9638874 0.8757497    Cu
Cu91  0.58469063 0.96471155 0.8833109    Cu
H92   0.66824025 0.761374 0.2418528     H
H93   0.5160455 0.7573353 0.29487404     H
H94   0.81673425 0.725183 0.35026494     H
H95   0.66640764 0.7242812 0.406688     H
H96   0.5588739 0.5782903 0.3270562     H
H97   0.72683394 0.5495841 0.36550462     H
H98   0.7090749 0.57882047 0.27026257     H
H99   0.045581833 0.86632574 0.16718842     H
H100  0.009620526 0.8939858 0.26142424     H
H101  0.25710782 0.77610505 0.20099117     H
H102  0.22725421 0.80267906 0.29759187     H
H103  0.99890584 0.7057795 0.28187847     H
H104  0.14085193 0.6290466 0.2542801     H
H105  0.028814202 0.678658 0.18493806     H
H106  0.09716292 0.15562153 0.19346975     H
H107  0.05055263 0.2457329 0.26768547     H
H108  0.8506956 0.13237286 0.15071309     H
H109  0.79997444 0.21757412 0.22566397     H
H110  0.9482419 0.3578465 0.17674388     H
H111  0.812462 0.30732596 0.11207301     H
H112  0.98918384 0.27139246 0.099680856     H
H113  0.9816075 0.078647494 0.5019454     H
H114  0.84628665 0.08013415 0.43011642     H
H115  0.9262146 0.25657594 0.5461018     H
H116  0.7831581 0.25067246 0.47876167     H
H117  0.67661715 0.101478696 0.5370717     H
H118  0.7051344 0.2096268 0.60286885     H
H119  0.82132596 0.10666847 0.6041812     H
H120  0.8032444 0.9821169 0.5424768     H
H121  0.68639535 0.06913042 0.50688493     H
H122  0.8979885 0.95197034 0.41312572     H
H123  0.7930296 0.052936196 0.3846178     H
H124  0.9143277 0.17270994 0.48124927     H
H125  0.033364415 0.11643195 0.41783065     H
H126  0.021630764 0.07144916 0.5088045     H
C127  0.07976538 0.6950231 0.24057348     C
C128  0.014940742 0.17639649 0.23244257     C
C129  0.88455266 0.19993389 0.18766972     C
C130  0.9108504 0.2897519 0.14116096     C
C131  0.9240142 0.12818217 0.4651924     C
C132  0.848595 0.20476425 0.5140696     C
C133  0.757272 0.1520015 0.5677578     C
C134  0.7444414 1.21593475e-05 0.4916672     C
C135  0.84837556 0.022663593 0.432486     C
C136  0.9612816 0.10075116 0.46219167     C
O137  0.6648368 0.8806827 0.32005557     O
C138  0.47274607 0.9687701 0.22782926     C
C139  0.3974721 0.96796507 0.53263617     C
C140  0.20463492 0.01789999 0.2902883     C
C141  0.09968091 0.07784462 0.31931293     C
C142  0.11095995 0.11666918 0.39289477     C
C143  0.22702193 0.09568417 0.4374372     C
C144  0.3257361 0.02766788 0.4103516     C
C145  0.32582068 0.0032114983 0.33409816     C
C146  0.4454682 0.9616748 0.30445883     C
C147  0.55101657 0.92655486 0.34976307     C
C148  0.5458166 0.9436362 0.42564228     C
C149  0.426274 0.9847917 0.45615813     C
C150  0.6300523 0.777383 0.29812053     C
C151  0.70281255 0.70881563 0.35010272     C
C152  0.67218554 0.59694725 0.32652694     C
C153  0.09564045 0.8825791 0.2228821     C
C154  0.17611879 0.7895883 0.24179134     C
Cl155 0.26151007 0.17391062 0.51912665    Cl
O156  0.49821344 0.96164936 0.57885206     O
O157  0.27229807 0.9552585 0.5524965     O
O158  0.18562838 0.9697618 0.22037172     O
O159  0.9829299 0.095553875 0.27643198     O
O160  0.012638756 0.18130112 0.41959238     O
O161  0.65563405 0.91425943 0.46934062     O
O162  0.48249897 0.88673484 0.18782216     O
O163  0.49013472 0.056433916 0.20234466     O
loop_
_geom_bond_atom_site_label_1
_geom_bond_atom_site_label_2
_geom_bond_distance
_geom_bond_site_symmetry_2
_ccdc_geom_bond_type
H0    C23    1.08207       .     S
H1    C22    1.07858       .     S
H2    C21    1.07638   1_554     S
H3    C20    1.07859       .     S
H4    C26    1.11127       .     S
H5    C26    1.11531   1_455     S
H6    C27    1.10775   1_655     S
H7    C27    1.10978       .     S
H8    C28    1.11067       .     S
H9    C28    1.11030       .     S
H10   C28    1.11041       .     S
H11   C29    1.11099       .     S
H12   C29    1.11460   1_556     A
H13   C30    1.11115       .     A
H14   C30    1.11137       .     A
H15   C31    1.11088   1_655     S
H16   C31    1.10923       .     S
H17   C31    1.11094       .     A
C18   C20    1.42225   1_655     S
C18   C25    1.41394       .     S
C18   O34    1.39262       .     A
C19   C21    1.41221       .     A
C19   C24    1.40968   1_545     A
C19   O35    1.38515   1_556     S
C20   H3     1.07859       .     S
C20   C18    1.42225   1_455     A
C20   N33    1.36048       .     S
C21   H2     1.07638   1_556     S
C21   C19    1.41221       .     S
C21   N32    1.36087   1_545     A
C22   H1     1.07858       .     A
C22   C24    1.41552   1_445     A
C22   N33    1.36473   1_545     S
C23   H0     1.08207       .     S
C23   C25    1.42077       .     S
C23   N32    1.36936       .     S
C24   C19    1.40968   1_565     S
C24   C22    1.41552   1_665     S
C24   C25    1.40897       .     S
C25   C18    1.41394       .     S
C25   C23    1.42077       .     S
C25   C24    1.40897       .     S
C26   H4     1.11127       .     S
C26   H5     1.11531   1_655     S
C26   C27    1.53176   1_655     S
C26   O34    1.41598       .     S
C27   H6     1.10775   1_455     S
C27   H7     1.10978       .     S
C27   C26    1.53176   1_455     S
C27   C28    1.52290       .     A
C28   H8     1.11067       .     A
C28   H9     1.11030       .     A
C28   H10    1.11041       .     S
C28   C27    1.52290       .     S
C29   H11    1.11099       .     A
C29   H12    1.11460   1_554     S
C29   C30    1.53486   1_654     S
C29   O35    1.41615       .     A
C30   H13    1.11115       .     A
C30   H14    1.11137       .     A
C30   C29    1.53486   1_456     S
C30   C31    1.52570       .     S
C31   H15    1.11088   1_455     A
C31   H16    1.10923       .     S
C31   H17    1.11094       .     S
C31   C30    1.52570       .     S
N32   C21    1.36087   1_565     A
N32   C23    1.36936       .     A
N32   Cu91   1.11090       .     A
N33   C20    1.36048       .     S
N33   C22    1.36473   1_565     S
N33   Cu90   1.09978       .     S
O34   C18    1.39262       .     S
O34   C26    1.41598       .     S
O35   C19    1.38515   1_554     S
O35   C29    1.41615       .     S
H36   C67    1.08414       .     S
H37   C66    1.08417       .     S
H38   C75    1.10746       .     S
H39   C75    1.11099       .     S
H40   C75    1.11088       .     S
H41   C74    1.10451       .     S
H42   C74    1.10923       .     S
H43   C77    1.11101       .     S
H44   C77    1.10682       .     S
H45   C77    1.11082       .     S
H46   C76    1.10927   1_556     S
H47   C76    1.10537       .     S
H48   C78    1.11597       .     S
H49   C78    1.11526       .     S
H50   C79    1.11186       .     S
H51   C79    1.11167       .     A
H52   C80    1.10948       .     A
H53   C80    1.11063       .     A
H54   C80    1.10837   1_655     A
H55   C81    1.11007   1_655     S
H56   C81    1.11524       .     S
H57   C82    1.11138       .     S
H58   C82    1.11082       .     S
H59   C83    1.11095       .     A
H60   C83    1.10996       .     A
H61   C83    1.11106       .     S
C62   C73    1.43280       .     S
C62   O84    1.29034       .     S
C62   O86    1.28497       .     S
C63   C72    1.43499       .     A
C63   O85    1.29061       .     D
C63   O87    1.28577       .     S
C64   C66    1.38076       .     D
C64   C71    1.41496       .     S
C64   O88    1.38199       .     S
C65   C67    1.38467       .     S
C65   C70    1.41249       .     A
C65   O89    1.38485       .     S
C66   H37    1.08417       .     S
C66   C64    1.38076       .     S
C66   C73    1.39134       .     S
C67   H36    1.08414       .     A
C67   C65    1.38467       .     A
C67   C72    1.39215       .     A
C68   C70    1.40462       .     S
C68   C73    1.40103       .     S
C68   C76    1.53263   1_556     S
C69   C71    1.40523       .     S
C69   C72    1.40235       .     S
C69   C74    1.53238       .     S
C70   C65    1.41249       .     S
C70   C68    1.40462       .     S
C70   C71    1.43164       .     S
C71   C64    1.41496       .     S
C71   C69    1.40523       .     S
C71   C70    1.43164       .     S
C72   C63    1.43499       .     S
C72   C67    1.39215       .     S
C72   C69    1.40235       .     S
C73   C62    1.43280       .     S
C73   C66    1.39134       .     S
C73   C68    1.40103       .     S
C74   H41    1.10451       .     S
C74   H42    1.10923       .     S
C74   C69    1.53238       .     S
C74   C75    1.53153       .     S
C75   H38    1.10746       .     S
C75   H39    1.11099       .     S
C75   H40    1.11088       .     S
C75   C74    1.53153       .     S
C76   H46    1.10927   1_554     A
C76   H47    1.10537       .     A
C76   C68    1.53263   1_554     A
C76   C77    1.53141       .     A
C77   H43    1.11101       .     S
C77   H44    1.10682       .     S
C77   H45    1.11082       .     S
C77   C76    1.53141       .     S
C78   H48    1.11597       .     A
C78   H49    1.11526       .     A
C78   C79    1.52706       .     S
C78   O88    1.41200       .     S
C79   H50    1.11186       .     S
C79   H51    1.11167       .     S
C79   C78    1.52706       .     A
C79   C80    1.52594   1_655     D
C80   H52    1.10948       .     S
C80   H53    1.11063       .     D
C80   H54    1.10837   1_455     S
C80   C79    1.52594   1_455     S
C81   H55    1.11007   1_455     S
C81   H56    1.11524       .     A
C81   C82    1.53530       .     S
C81   O89    1.41605       .     S
C82   H57    1.11138       .     S
C82   H58    1.11082       .     S
C82   C81    1.53530       .     A
C82   C83    1.52565   1_455     A
C83   H59    1.11095       .     A
C83   H60    1.10996       .     S
C83   H61    1.11106       .     S
C83   C82    1.52565   1_655     S
O84   C62    1.29034       .     S
O84   Cu90   2.45663       .     S
O85   C63    1.29061       .     S
O85   Cu91   2.47721   1_545     S
O86   C62    1.28497       .     S
O86   Cu91   2.07199       .     S
O87   C63    1.28577       .     S
O87   Cu90   2.07730   1_545     S
O88   C64    1.38199       .     S
O88   C78    1.41200       .     S
O89   C65    1.38485       .     S
O89   C81    1.41605       .     S
Cu90  N33    1.09978       .     S
Cu90  O84    2.45663       .     D
Cu90  O87    2.07730   1_565     S
Cu90  Cu91   2.71995       .     S
Cu90  O157   5.87027       .     S
Cu90  O162   6.03955   1_556     S
Cu91  N32    1.11090       .     S
Cu91  O85    2.47721   1_565     S
Cu91  O86    2.07199       .     S
Cu91  Cu90   2.71995       .     S
Cu91  O156   5.56643       .     S
Cu91  O163   5.96069   1_566     S
H92   C150   1.11124       .     S
H93   C150   1.11859       .     S
H94   C151   1.11084       .     A
H95   C151   1.10926       .     A
H96   C152   1.11088       .     S
H97   C152   1.11058       .     A
H98   C152   1.11080       .     A
H99   C153   1.10828       .     S
H100  C153   1.11566       .     S
H101  C154   1.11005       .     S
H102  C154   1.11024       .     A
H103  C127   1.11091   1_655     A
H104  C127   1.11033       .     A
H105  C127   1.11091       .     S
H106  C128   1.11482       .     S
H107  C128   1.11570       .     S
H108  C129   1.10998       .     S
H109  C129   1.11170       .     S
H110  C130   1.11077       .     S
H111  C130   1.10919       .     S
H112  C130   1.11102       .     A
H113  C131   1.11684       .     A
H114  C131   1.11313       .     A
H115  C132   1.11212       .     A
H116  C132   1.11095       .     S
H117  C133   1.11074       .     S
H118  C133   1.10978       .     S
H119  C133   1.11108       .     S
H120  C134   1.11019   1_565     S
H121  C134   1.11619       .     S
H122  C135   1.11015   1_565     S
H123  C135   1.11067       .     S
H124  C136   1.11083       .     S
H125  C136   1.11079   1_455     S
H126  C136   1.11083   1_455     S
C127  H103   1.11091   1_455     S
C127  H104   1.11033       .     S
C127  H105   1.11091       .     S
C127  C154   1.52552       .     S
C128  H106   1.11482       .     S
C128  H107   1.11570       .     S
C128  C129   1.52602   1_455     S
C128  O159   1.41133   1_455     S
C129  H108   1.10998       .     S
C129  H109   1.11170       .     S
C129  C128   1.52602   1_655     S
C129  C130   1.52486       .     S
C130  H110   1.11077       .     S
C130  H111   1.10919       .     S
C130  H112   1.11102       .     S
C130  C129   1.52486       .     S
C131  H113   1.11684       .     S
C131  H114   1.11313       .     D
C131  C132   1.52755       .     S
C131  O160   1.41450   1_655     S
C132  H115   1.11212       .     S
C132  H116   1.11095       .     S
C132  C131   1.52755       .     S
C132  C133   1.52640       .     S
C133  H117   1.11074       .     S
C133  H118   1.10978       .     S
C133  H119   1.11108       .     S
C133  C132   1.52640       .     D
C134  H120   1.11019   1_545     S
C134  H121   1.11619       .     S
C134  C135   1.53624       .     S
C134  O161   1.41878   1_545     S
C135  H122   1.11015   1_545     S
C135  H123   1.11067       .     S
C135  C134   1.53624       .     S
C135  C136   1.52542       .     S
C136  H124   1.11083       .     S
C136  H125   1.11079   1_655     S
C136  H126   1.11083   1_655     S
C136  C135   1.52542       .     S
O137  C147   1.38647       .     A
O137  C150   1.41941       .     A
C138  C146   1.43788       .     S
C138  O162   1.27291       .     A
C138  O163   1.28592   1_565     A
C139  C149   1.46014       .     S
C139  O156   1.26879       .     S
C139  O157   1.28163       .     S
C140  C141   1.40828       .     A
C140  C145   1.41627       .     A
C140  O158   1.38425   1_545     A
C141  C140   1.40828       .     S
C141  C142   1.39852       .     S
C141  O159   1.38178   1_455     S
C142  C141   1.39852       .     S
C142  C143   1.40435       .     S
C142  O160   1.38290       .     S
C143  C142   1.40435       .     S
C143  C144   1.41622       .     A
C143  Cl155  1.76300       .     A
C144  C143   1.41622       .     A
C144  C145   1.40254       .     A
C144  C149   1.41576   1_545     S
C145  C140   1.41627       .     S
C145  C144   1.40254       .     S
C145  C146   1.40898   1_545     S
C146  C138   1.43788       .     S
C146  C145   1.40898   1_565     S
C146  C147   1.39927       .     S
C147  O137   1.38647       .     S
C147  C146   1.39927       .     S
C147  C148   1.38659       .     S
C148  C147   1.38659       .     S
C148  C149   1.41241       .     S
C148  O161   1.38406       .     S
C149  C139   1.46014       .     S
C149  C144   1.41576   1_565     S
C149  C148   1.41241       .     S
C150  H92    1.11124       .     S
C150  H93    1.11859       .     S
C150  O137   1.41941       .     S
C150  C151   1.52652       .     S
C151  H94    1.11084       .     S
C151  H95    1.10926       .     S
C151  C150   1.52652       .     S
C151  C152   1.52537       .     S
C152  H96    1.11088       .     S
C152  H97    1.11058       .     S
C152  H98    1.11080       .     S
C152  C151   1.52537       .     S
C153  H99    1.10828       .     D
C153  H100   1.11566       .     S
C153  C154   1.53362       .     S
C153  O158   1.41883       .     S
C154  H101   1.11005       .     S
C154  H102   1.11024       .     S
C154  C127   1.52552       .     S
C154  C153   1.53362       .     S
Cl155 C143   1.76300       .     S
O156  Cu91   5.56643       .     S
O156  C139   1.26879       .     S
O157  Cu90   5.87027       .     S
O157  C139   1.28163       .     S
O158  C140   1.38425   1_565     S
O158  C153   1.41883       .     S
O159  C128   1.41133   1_655     S
O159  C141   1.38178   1_655     S
O160  C131   1.41450   1_455     S
O160  C142   1.38290       .     S
O161  C134   1.41878   1_565     S
O161  C148   1.38406       .     S
O162  Cu90   6.03955   1_554     S
O162  C138   1.27291       .     S
O163  Cu91   5.96069   1_544     S
O163  C138   1.28592   1_545     S
