data_I
_chemical_name_common  'pretrained/mofdiff_ckpt/samples_1_seed_999/cif/sample_0'
_cell_length_a  9.82085
_cell_length_b 10.55645
_cell_length_c 17.78095
_cell_angle_alpha 91.18626
_cell_angle_beta  94.59488
_cell_angle_gamma 94.38992
_space_group_name_H-M_alt      'P 1'


loop_
_space_group_symop_operation_xyz
  'x, y, z' 

loop_
_atom_site_label
_atom_site_fract_x
_atom_site_fract_y
_atom_site_fract_z
_atom_site_type_symbol
Zn0   0.11956554 0.41745123 0.2178873    Zn
Zn1   0.428236 0.47830832 0.23723139    Zn
H2    0.7016491 0.5187398 0.34833014     H
H3    0.8485038 0.38177866 0.10791437     H
H4    0.8091096 0.13620324 0.18686916     H
H5    0.71019703 0.16957189 0.099458404     H
H6    0.6505372 0.045629427 0.15855788     H
H7    0.83980536 0.73099613 0.356747     H
H8     0.74102 0.76434165 0.26927602     H
H9    0.8995865 0.8549073 0.29764894     H
C10   0.8137487 0.3705314 0.27781945     C
C11   0.7364055 0.5299962 0.17842272     C
C12   0.70821077 0.34329674 0.21087414     C
C13   0.84194225 0.5572217 0.24537037     C
C14   0.7373297 0.48867756 0.2935813     C
C15   0.81282336 0.41184092 0.16266324     C
C16   0.7043818 0.14187415 0.15889014     C
C17   0.8457229 0.758674 0.2973005     C
N18   0.6392884 0.46004057 0.22568515     N
N19   0.91086465 0.44047794 0.23055936     N
O20   0.62847847 0.2272125 0.19674516     O
O21   0.92166495 0.6733016 0.2595071     O
F22   0.85785276 0.28457713 0.33024544     F
F23   0.69230884 0.61593145 0.12600157     F
H24   0.082987376 0.5326456 0.79186773     H
H25   0.46428496 0.3679658 0.6663972     H
H26   0.30545464 0.32791293 0.6151022     H
H27   0.035714824 0.39124164 0.74096835     H
H28   0.6008535 0.6269403 0.77427864     H
H29   0.38332906 0.6582106 0.8858055     H
H30   0.4328883 0.7574772 0.7072633     H
H31   0.529086 0.42062783 0.8257919     H
H32   0.13474536 0.6928813 0.7252039     H
H33   0.4400155 0.18250604 0.7372311     H
C34   0.16356847 0.5267272 0.67806304     C
C35   0.30021444 0.3038994 0.73776346     C
C36   0.16000265 0.29137433 0.914702     C
C37   0.39912266 0.61681795 0.5441417     C
C38   0.32131124 0.5182459 0.6714342     C
C39   0.24822402 0.4027111 0.7932771     C
C40   0.36203995 0.51335233 0.81610155     C
C41   0.40763813 0.582584 0.7422684     C
C42   0.20398398 0.3385822 0.86024773     C
C43   0.3624124 0.57749283 0.6023235     C
C44   0.44730762 0.64460874 0.4729969     C
C45   0.096331015 0.25086668 0.9795586     C
O46   0.30546728 0.6011449 0.86281484     O
C47   0.35212007 0.37522945 0.6683625     C
C48   0.12314262 0.4635571 0.7528287     C
Br49  0.15220504 0.17354453 0.7055906    Br
Br50  0.055256132 0.4387797 0.59223133    Br
O51   0.3700528 0.5939541 0.41514242     O
O52   0.97418624 0.19198476 0.9671894     O
O53   0.57485294 0.69369227 0.47352535     O
O54   0.15325394 0.3007989 0.04373455     O
O55   0.5484305 0.57243603 0.7340348     O
O56   0.3842164 0.71271867 0.74704194     O
O57   0.47309142 0.46579087 0.85942876     O
O58   0.1294011 0.65397424 0.6739558     O
O59   0.40578362 0.24008557 0.7747686     O
H60   0.5040569 0.9603379 0.29849306     H
H61   0.043537926 0.936808 0.16181158     H
H62   0.025703564 0.045301676 0.3215806     H
H63   0.16435587 0.14158916 0.35142437     H
H64   0.52256733 0.8525445 0.13905115     H
H65   0.38436738 0.7561345 0.1088228     H
H66   0.14516954 0.8288222 0.39399782     H
H67   0.4016753 0.06492746 0.06508888     H
C68   0.16356325 0.69916207 0.22412692     C
C69   0.38444194 0.19768107 0.23569295     C
C70   0.2633085 0.90880054 0.30066037     C
C71   0.2842553 0.9883068 0.15957557     C
C72   0.19350803 0.02046132 0.26494008     C
C73   0.35419476 0.87671846 0.19528438     C
C74   0.3273006 0.066787004 0.23247343     C
C75   0.22038704 0.8302521 0.22773151     C
C76   0.40018696 0.9547678 0.26836896     C
C77   0.14742488 0.9423645 0.19190288     C
C78   0.2456555 0.86436796 0.3789122     C
C79   0.3007472 0.033617496 0.08137853     C
N80   0.1070701 0.1029433 0.30315962     N
N81   0.44119132 0.7946229 0.15722676     N
O82   0.23788545 0.6131264 0.25301042     O
O83   0.31032547 0.28360045 0.20654133     O
O84   0.041371748 0.6759157 0.19176479     O
O85   0.5068392 0.22081125 0.26778695     O
O86   0.34362546 0.8681139 0.4258598     O
O87   0.20116788 0.03581536 0.03590878     O
loop_
_geom_bond_atom_site_label_1
_geom_bond_atom_site_label_2
_geom_bond_distance
_geom_bond_site_symmetry_2
_ccdc_geom_bond_type
Zn0   Zn1    3.04074       .     S
Zn0   N19    2.11159   1_455     S
Zn0   O51    4.41252       .     S
Zn0   O52    5.05914   1_454     S
Zn0   O83    2.44968       .     S
Zn0   O84    2.92679       .     S
Zn1   Zn0    3.04074       .     S
Zn1   N18    2.12208       .     S
Zn1   O53    4.79894       .     S
Zn1   O54    4.48459       .     S
Zn1   O82    2.46448       .     S
Zn1   O85    2.93175       .     S
H2    C14    1.10908       .     S
H3    C15    1.10908       .     S
H4    C16    1.11248       .     S
H5    C16    1.10697       .     S
H6    C16    1.10857       .     S
H7    C17    1.10728       .     S
H8    C17    1.11256       .     S
H9    C17    1.10852       .     S
C10   C12    1.52198       .     S
C10   C14    1.53617       .     S
C10   N19    1.48571       .     S
C10   F22    1.38217       .     S
C11   C13    1.52199       .     S
C11   C15    1.53624       .     S
C11   N18    1.48578       .     S
C11   F23    1.38195       .     S
C12   C10    1.52198       .     S
C12   C15    1.53848       .     S
C12   N18    1.47958       .     S
C12   O20    1.40954       .     S
C13   C11    1.52199       .     S
C13   C14    1.53848       .     S
C13   N19    1.47958       .     S
C13   O21    1.40947       .     S
C14   H2     1.10908       .     S
C14   C10    1.53617       .     S
C14   C13    1.53848       .     S
C14   N18    1.49333       .     S
C15   H3     1.10908       .     S
C15   C11    1.53624       .     S
C15   C12    1.53848       .     S
C15   N19    1.49333       .     S
C16   H4     1.11248       .     S
C16   H5     1.10697       .     S
C16   H6     1.10857       .     S
C16   O20    1.40655       .     S
C17   H7     1.10728       .     S
C17   H8     1.11256       .     S
C17   H9     1.10852       .     S
C17   O21    1.40647       .     S
N18   Zn1    2.12208       .     S
N18   C11    1.48578       .     S
N18   C12    1.47958       .     D
N18   C14    1.49333       .     S
N19   Zn0    2.11159   1_655     S
N19   C10    1.48571       .     T
N19   C13    1.47958       .     S
N19   C15    1.49333       .     S
O20   C12    1.40954       .     S
O20   C16    1.40655       .     S
O21   C13    1.40947       .     S
O21   C17    1.40647       .     S
F22   C10    1.38217       .     S
F23   C11    1.38195       .     S
H24   C48    1.11185       .     S
H25   C47    1.11333       .     S
H26   C47    1.11005       .     S
H27   C48    1.10835       .     S
H28   O55    0.99335       .     S
H29   O46    0.99193       .     S
H30   O56    0.99269       .     S
H31   O57    0.98410       .     S
H32   O58    0.98759       .     S
H33   O59    0.98915       .     S
C34   C38    1.57222       .     S
C34   C48    1.56537       .     S
C34   Br50   1.96283       .     S
C34   O58    1.41119       .     S
C35   C39    1.56293       .     S
C35   C47    1.55889       .     S
C35   Br49   1.96513       .     S
C35   O59    1.40628       .     S
C36   C42    1.19434       .     S
C36   C45    1.41378       .     S
C37   C43    1.19465       .     S
C37   C44    1.41432       .     T
C38   C34    1.57222       .     S
C38   C41    1.57218       .     D
C38   C43    1.46179       .     S
C38   C47    1.56302       .     D
C39   C35    1.56293       .     S
C39   C40    1.57674       .     S
C39   C42    1.46161       .     T
C39   C48    1.56115       .     S
C40   C39    1.57674       .     S
C40   C41    1.59436       .     S
C40   O46    1.40656       .     S
C40   O57    1.41431       .     S
C41   C38    1.57218       .     S
C41   C40    1.59436       .     S
C41   O55    1.41394       .     S
C41   O56    1.41209       .     S
C42   C36    1.19434       .     S
C42   C39    1.46161       .     S
C43   C37    1.19465       .     S
C43   C38    1.46179       .     S
C44   C37    1.41432       .     S
C44   O51    1.30762       .     S
C44   O53    1.31762       .     S
C45   C36    1.41378       .     S
C45   O52    1.30829   1_455     S
C45   O54    1.31159   1_556     S
O46   H29    0.99193       .     S
O46   C40    1.40656       .     S
C47   H25    1.11333       .     S
C47   H26    1.11005       .     S
C47   C35    1.55889       .     S
C47   C38    1.56302       .     S
C48   H24    1.11185       .     S
C48   H27    1.10835       .     S
C48   C34    1.56537       .     S
C48   C39    1.56115       .     S
Br49  C35    1.96513       .     T
Br50  C34    1.96283       .     S
O51   Zn0    4.41252       .     D
O51   C44    1.30762       .     S
O52   Zn0    5.05914   1_656     D
O52   C45    1.30829   1_655     S
O53   Zn1    4.79894       .     S
O53   C44    1.31762       .     S
O54   Zn1    4.48459       .     S
O54   C45    1.31159   1_554     S
O55   H28    0.99335       .     S
O55   C41    1.41394       .     S
O56   H30    0.99269       .     S
O56   C41    1.41209       .     S
O57   H31    0.98410       .     S
O57   C40    1.41431       .     S
O58   H32    0.98759       .     D
O58   C34    1.41119       .     S
O59   H33    0.98915       .     S
O59   C35    1.40628       .     D
H60   C76    1.11037       .     S
H61   C77    1.11028       .     S
H62   N80    1.04491       .     S
H63   N80    1.04520       .     S
H64   N81    1.04487       .     S
H65   N81    1.04457       .     S
H66   C78    1.08468       .     S
H67   C79    1.08417       .     S
C68   C75    1.45015       .     S
C68   O82    1.29698       .     S
C68   O84    1.29222       .     S
C69   C74    1.44927       .     S
C69   O83    1.29663       .     S
C69   O85    1.29212       .     S
C70   C72    1.53222   1_565     D
C70   C75    1.53661       .     S
C70   C76    1.55162       .     D
C70   C78    1.49642       .     S
C71   C73    1.53216       .     S
C71   C74    1.53601   1_565     S
C71   C77    1.55143       .     S
C71   C79    1.49668   1_565     S
C72   C70    1.53222   1_545     S
C72   C74    1.52766       .     S
C72   C77    1.54124   1_545     S
C72   N80    1.45660       .     S
C73   C71    1.53216       .     S
C73   C75    1.52802       .     S
C73   C76    1.54151       .     D
C73   N81    1.45625       .     S
C74   C69    1.44927       .     S
C74   C71    1.53601   1_545     D
C74   C72    1.52766       .     S
C74   C76    1.55105   1_545     S
C75   C68    1.45015       .     S
C75   C70    1.53661       .     S
C75   C73    1.52802       .     S
C75   C77    1.55174       .     S
C76   H60    1.11037       .     S
C76   C70    1.55162       .     S
C76   C73    1.54151       .     S
C76   C74    1.55105   1_565     S
C77   H61    1.11028       .     S
C77   C71    1.55143       .     S
C77   C72    1.54124   1_565     S
C77   C75    1.55174       .     S
C78   H66    1.08468       .     D
C78   C70    1.49642       .     S
C78   O86    1.21994       .     S
C79   H67    1.08417       .     S
C79   C71    1.49668   1_545     S
C79   O87    1.21990       .     S
N80   H62    1.04491       .     S
N80   H63    1.04520       .     S
N80   C72    1.45660       .     S
N81   H64    1.04487       .     S
N81   H65    1.04457       .     S
N81   C73    1.45625       .     S
O82   Zn1    2.46448       .     S
O82   C68    1.29698       .     S
O83   Zn0    2.44968       .     S
O83   C69    1.29663       .     S
O84   Zn0    2.92679       .     S
O84   C68    1.29222       .     S
O85   Zn1    2.93175       .     S
O85   C69    1.29212       .     S
O86   C78    1.21994       .     S
O87   C79    1.21990       .     S
