data_I
_chemical_name_common  'results/nh3_target_2mmol/cif/sample_9'
_cell_length_a 15.15383
_cell_length_b 15.59310
_cell_length_c 16.00620
_cell_angle_alpha 84.59145
_cell_angle_beta  94.66722
_cell_angle_gamma 98.44855
_space_group_name_H-M_alt      'P 1'


loop_
_space_group_symop_operation_xyz
  'x, y, z' 

loop_
_atom_site_label
_atom_site_fract_x
_atom_site_fract_y
_atom_site_fract_z
_atom_site_type_symbol
H0    0.30055666 0.87781286 0.85963315     H
H1    0.4455414 0.6874442 0.0013673141     H
H2    0.5875606 0.10616398 0.97628987     H
H3    0.77210104 0.7594258 0.062082812     H
H4    0.2772812 0.03012216 0.8568576     H
H5    0.39058542 0.76447093 0.9015007     H
H6    0.67760986 0.022899032 0.9522759     H
H7    0.76425135 0.9098742 0.005463678     H
C8    0.5484434 0.9385326  0.94473     C
C9    0.4205844 0.8303361 0.91109186     C
C10   0.6420056 0.95792705 0.96216995     C
C11   0.6929754 0.8927879 0.99149114     C
C12   0.5178693 0.5511867 0.06451588     C
C13   0.56565094 0.6394988 0.049952403     C
C14   0.465731 0.15332735 0.93233275     C
C15   0.7009148 0.74391216 0.0466058     C
C16   0.34598577 0.046288967 0.8812066     C
C17   0.6584975 0.6599163 0.06744362     C
C18   0.37747055 0.13180232 0.89844036     C
C19   0.51715183 0.7030529 0.010355989     C
C20   0.5216046 0.08918345 0.94681835     C
C21   0.5046236 0.24278188 0.9472625     C
C22   0.55890924 0.78631526 0.985901     C
C23   0.49224183 0.0038260221 0.9276136     C
C24   0.36856714 0.8955164 0.88520783     C
C25   0.65153635 0.80762964 0.00742967     C
C26   0.4020938 0.981869 0.8971157     C
C27   0.5090233 0.8506328 0.9466131     C
O28   0.43263724 0.53785515 0.039016105     O
O29   0.58842224 0.25627375 0.97736096     O
O30   0.56354225 0.48849785 0.093669474     O
O31   0.4575174 0.30563116 0.9227077     O
F32   0.7082836 0.59951776 0.10478258     F
F33   0.32128304 0.19256449 0.8827801     F
C34   0.49346235 0.41465646 0.8496978     C
C35   0.52566856 0.3817987 0.17099829     C
C36   0.58623105 0.3744811 0.47922406     C
C37   0.43289986 0.42197403 0.54147196     C
C38   0.43703327 0.41775697 0.45436603     C
C39   0.5820976 0.37869814 0.56633013     C
C40   0.51369464 0.3940149 0.42333177     C
C41   0.5054352 0.40244135 0.5973867     C
C42   0.51794106 0.3896826 0.33384487     C
C43   0.5011899 0.4067726 0.6868513     C
C44   0.49765867 0.41037524 0.76126647     C
C45   0.5214723 0.38607994 0.25942957     C
C46   0.65665436 0.35865322 0.62404984     C
C47   0.36247665 0.43780193 0.3966462     C
C48   0.35407758 0.44637084 0.57364357     C
C49   0.6650533 0.35008428 0.44705245     C
N50   0.7160633 0.34265894 0.6701036     N
N51   0.30306765 0.45379627 0.35059243     N
N52   0.2912632 0.46583956 0.5993547     N
N53   0.7278678 0.33061567 0.42134145     N
O54   0.5181796 0.35382763 0.90123725     O
O55   0.50095135 0.4426275 0.11945886     O
O56   0.46502095 0.47928467 0.87663925     O
O57   0.55410993 0.31717044 0.1440569     O
H58   0.11425638 0.49245077 0.9267159     H
H59   0.74373996 0.33387563 0.9949594     H
H60   0.26332486 0.446736 0.9331575     H
H61   0.8125921 0.62522954 0.96947515     H
H62   0.21176419 0.17466086 0.05530692     H
H63   0.0272477 0.6269056 0.004892405     H
H64   0.13076487 0.6136638 0.122575626     H
H65   0.0883942 0.50016105 0.14098361     H
H66   0.019885378 0.58198124 0.15881725     H
H67   0.014640264 0.19169708 0.11429908     H
H68   0.9544349 0.24943724 0.22509868     H
H69   0.9929411 0.35822815 0.18297619     H
H70   0.07296139 0.288188 0.22877127     H
H71   0.89115334 0.28713208 0.99227434     H
C72   0.21131594 0.40725634 0.96766937     C
C73   0.87028444 0.52732426 0.010769791     C
C74   0.16155986 0.28015843 0.053550273     C
C75   0.9567354 0.5019652 0.017901205     C
C76   0.07758731 0.30819127 0.058525626     C
C77   0.96651626 0.41440088 0.010125994     C
C78   0.05783711 0.38525072 0.011624932     C
C79   0.069657594 0.56493133 0.118116535     C
C80   0.00845258 0.2904056 0.19079892     C
C81   0.8876605 0.35466632 0.00025059254     C
C82   0.12628905 0.43388674 0.96519476     C
C83   0.8030064 0.38148734 0.0003360634     C
N84   0.7947319 0.4666378 0.0054411213     N
N85   0.2284449 0.33158806 0.011463115     N
N86   0.03342836 0.5651049 0.031680137     N
N87   0.012975122 0.2578508 0.10980675     N
O88   0.8639748 0.61442703 0.009012076     O
O89   0.17407738 0.199694 0.09138961     O
Zn90  0.44586995 0.31405354 0.029186588    Zn
Zn91  0.57507515 0.48077443 0.9888916    Zn
loop_
_geom_bond_atom_site_label_1
_geom_bond_atom_site_label_2
_geom_bond_distance
_geom_bond_site_symmetry_2
_ccdc_geom_bond_type
H0    C24    1.08397       .     D
H1    C19    1.07755       .     S
H2    C20    1.07734       .     S
H3    C15    1.08384       .     S
H4    C16    1.08387       .     A
H5    C9     1.07992       .     A
H6    C10    1.07964   1_545     A
H7    C11    1.08397   1_554     S
C8    C10    1.41602       .     A
C8    C23    1.41464   1_565     S
C8    C27    1.41100       .     A
C9    H5     1.07992       .     A
C9    C24    1.38884       .     A
C9    C27    1.41592       .     A
C10   H6     1.07964   1_565     S
C10   C8     1.41602       .     S
C10   C11    1.38932       .     A
C11   H7     1.08397   1_556     A
C11   C10    1.38932       .     A
C11   C25    1.39279   1_556     A
C12   C13    1.46591       .     A
C12   O28    1.31504       .     S
C12   O30    1.30865       .     S
C13   C12    1.46591       .     A
C13   C17    1.40727       .     A
C13   C19    1.39418       .     A
C14   C18    1.40718       .     A
C14   C20    1.39436       .     A
C14   C21    1.46577       .     S
C15   H3     1.08384       .     A
C15   C17    1.39464       .     S
C15   C25    1.40175       .     A
C16   H4     1.08387       .     A
C16   C18    1.39381       .     S
C16   C26    1.40154   1_545     S
C17   C13    1.40727       .     D
C17   C15    1.39464       .     S
C17   F32    1.35745       .     D
C18   C14    1.40718       .     S
C18   C16    1.39381       .     S
C18   F33    1.35759       .     S
C19   H1     1.07755       .     A
C19   C13    1.39418       .     A
C19   C22    1.39369   1_554     A
C20   H2     1.07734       .     S
C20   C14    1.39436       .     A
C20   C23    1.39458       .     S
C21   C14    1.46577       .     A
C21   O29    1.31528       .     A
C21   O31    1.30834       .     A
C22   C19    1.39369   1_556     A
C22   C25    1.41607   1_556     S
C22   C27    1.41396       .     S
C23   C8     1.41464   1_545     A
C23   C20    1.39458       .     A
C23   C26    1.41678   1_545     A
C24   H0     1.08397       .     A
C24   C9     1.38884       .     A
C24   C26    1.39253       .     S
C25   C11    1.39279   1_554     S
C25   C15    1.40175       .     A
C25   C22    1.41607   1_554     A
C26   C16    1.40154   1_565     A
C26   C23    1.41678   1_565     A
C26   C24    1.39253       .     A
C27   C8     1.41100       .     S
C27   C9     1.41592       .     A
C27   C22    1.41396       .     S
O28   C12    1.31504       .     A
O28   Zn91   2.66006   1_554     A
O29   C21    1.31528       .     S
O29   Zn90   2.67783   1_556     S
O30   C12    1.30865       .     D
O30   Zn91   1.71746   1_554     S
O31   C21    1.30834       .     D
O31   Zn90   1.74673   1_556     S
F32   C17    1.35745       .     S
F33   C18    1.35759       .     T
C34   C44    1.43028       .     S
C34   O54    1.27558       .     T
C34   O56    1.27557       .     T
C35   C45    1.43028       .     S
C35   O55    1.27558       .     S
C35   O57    1.27557       .     A
C36   C39    1.40885       .     A
C36   C40    1.41009       .     A
C36   C49    1.45161       .     A
C37   C38    1.40884       .     A
C37   C41    1.41027       .     S
C37   C48    1.45161       .     A
C38   C37    1.40884       .     S
C38   C40    1.41009       .     S
C38   C47    1.45162       .     T
C39   C36    1.40885       .     T
C39   C41    1.41026       .     T
C39   C46    1.45162       .     S
C40   C36    1.41009       .     D
C40   C38    1.41009       .     S
C40   C42    1.44735       .     D
C41   C37    1.41027       .     S
C41   C39    1.41026       .     S
C41   C43    1.44699       .     T
C42   C40    1.44735       .     S
C42   C45    1.20359       .     T
C43   C41    1.44699       .     T
C43   C44    1.20359       .     S
C44   C34    1.43028       .     S
C44   C43    1.20359       .     A
C45   C35    1.43028       .     A
C45   C42    1.20359       .     A
C46   C39    1.45162       .     A
C46   N50    1.15732       .     A
C47   C38    1.45162       .     S
C47   N51    1.15732       .     A
C48   C37    1.45161       .     S
C48   N52    1.15750       .     S
C49   C36    1.45161       .     T
C49   N53    1.15750       .     T
N50   C46    1.15732       .     T
N51   C47    1.15732       .     S
N52   C48    1.15750       .     D
N53   C49    1.15750       .     S
O54   C34    1.27558       .     S
O54   Zn90   2.38865   1_556     S
O55   C35    1.27558       .     S
O55   Zn91   2.43608   1_554     S
O56   C34    1.27557       .     S
O56   Zn91   2.34926       .     S
O57   C35    1.27557       .     S
O57   Zn90   2.36136       .     S
H58   C82    1.08219       .     A
H59   C83    1.08108   1_556     A
H60   C72    1.08141       .     A
H61   O88    0.98661   1_556     S
H62   O89    0.98679       .     S
H63   N86    1.03119       .     S
H64   C79    1.11028       .     S
H65   C79    1.11008       .     A
H66   C79    1.11153       .     A
H67   N87    1.03114       .     A
H68   C80    1.11038   1_655     S
H69   C80    1.11025   1_655     S
H70   C80    1.11153       .     S
H71   C81    1.08207   1_556     A
C72   H60    1.08141       .     A
C72   C82    1.40713       .     A
C72   N85    1.36212   1_556     A
C73   C75    1.41599       .     A
C73   N84    1.37642       .     S
C73   O88    1.37301       .     S
C74   C76    1.41534       .     S
C74   N85    1.37647       .     A
C74   O89    1.37297       .     S
C75   C73    1.41599       .     S
C75   C77    1.41290       .     S
C75   N86    1.42536   1_655     S
C76   C74    1.41534       .     S
C76   C78    1.41281       .     S
C76   N87    1.42551       .     S
C77   C75    1.41290       .     S
C77   C78    1.51645   1_655     S
C77   C81    1.41084       .     S
C78   C76    1.41281       .     S
C78   C77    1.51645   1_455     A
C78   C82    1.41121   1_554     A
C79   H64    1.11028       .     A
C79   H65    1.11008       .     S
C79   H66    1.11153       .     S
C79   N86    1.44626       .     S
C80   H68    1.11038   1_455     S
C80   H69    1.11025   1_455     A
C80   H70    1.11153       .     A
C80   N87    1.44628       .     A
C81   H71    1.08207   1_554     S
C81   C77    1.41084       .     S
C81   C83    1.40663       .     S
C82   H58    1.08219       .     A
C82   C72    1.40713       .     A
C82   C78    1.41121   1_556     A
C83   H59    1.08108   1_554     A
C83   C81    1.40663       .     A
C83   N84    1.36249       .     S
N84   C73    1.37642       .     S
N84   C83    1.36249       .     S
N84   Zn91   3.35555   1_554     A
N85   C72    1.36212   1_554     S
N85   C74    1.37647       .     S
N85   Zn90   3.33303       .     S
N86   H63    1.03119       .     S
N86   C75    1.42536   1_455     S
N86   C79    1.44626       .     S
N87   H67    1.03114       .     S
N87   C76    1.42551       .     S
N87   C80    1.44628       .     S
O88   H61    0.98661   1_554     S
O88   C73    1.37301       .     S
O89   H62    0.98679       .     S
O89   C74    1.37297       .     S
Zn90  O29    2.67783   1_554     S
Zn90  O31    1.74673   1_554     S
Zn90  O54    2.38865   1_554     S
Zn90  O57    2.36136       .     S
Zn90  N85    3.33303       .     S
Zn90  Zn91   3.06622   1_554     S
Zn91  O28    2.66006   1_556     S
Zn91  O30    1.71746   1_556     S
Zn91  O55    2.43608   1_556     S
Zn91  O56    2.34926       .     S
Zn91  N84    3.35555   1_556     S
Zn91  Zn90   3.06622   1_556     S
