data_I
_chemical_name_common  'results/nh3_target_2mmol/cif/sample_2'
_cell_length_a 13.39836
_cell_length_b 13.83203
_cell_length_c 13.46075
_cell_angle_alpha 84.60680
_cell_angle_beta  95.14861
_cell_angle_gamma 88.15572
_space_group_name_H-M_alt      'P 1'


loop_
_space_group_symop_operation_xyz
  'x, y, z' 

loop_
_atom_site_label
_atom_site_fract_x
_atom_site_fract_y
_atom_site_fract_z
_atom_site_type_symbol
H0    0.34838787 0.61335313 0.9235262     H
H1    0.2476766 0.8182939 0.87479496     H
C2    0.3063989 0.7147296 0.58010375     C
C3    0.28365022 0.724744 0.21775603     C
C4    0.31548765 0.70019525 0.6850941     C
C5    0.2749327 0.7354118 0.1127429     C
C6    0.27625012 0.7521845 0.9193711     C
C7    0.31798872 0.6790678 0.8789521     C
C8    0.31957734 0.687757 0.77386147     C
C9    0.2727272 0.7447032 0.024052382     C
O10   0.38524023 0.6997842 0.53455704     O
O11   0.21825725 0.7352289 0.5340938     O
O12   0.3717865 0.70501244 0.26368916     O
O13   0.20480351 0.7404571 0.2632259     O
Zn14  0.40578803 0.69452876 0.41067368    Zn
Zn15  0.18354583 0.74448144 0.38605914    Zn
H16   0.90693593 0.33837366 0.17333767     H
H17   0.959905 0.38029194 0.345878     H
H18   0.12320922 0.31614834 0.43100566     H
H19   0.4895402 0.2506607 0.5247734     H
H20   0.6563322 0.16764465 0.5389967     H
H21   0.70515084 0.06947178 0.40294853     H
H22   0.585113 0.049749203 0.2584043     H
H23   0.41789892 0.13220622 0.24267694     H
H24   0.17893052 0.16972966 0.17123228     H
H25   0.016859373 0.23583037 0.08659175     H
C26   0.2620779 0.09200615 0.3824572     C
C27   0.44154066 0.19696115 0.38308725     C
C28   0.5097831 0.20722708 0.4661966     C
C29   0.6043675 0.16016853 0.474292     C
C30   0.631617 0.104223765 0.39882162     C
C31   0.5640064 0.09365883 0.31619233     C
C32   0.46944523 0.14017062 0.3078866     C
C33   0.16219464 0.2386758 0.3070472     C
C34   0.13179076 0.21617837 0.20964856     C
C35   0.040070463 0.25285915 0.16173118     C
C36   0.9779821 0.31115478 0.21110496     C
C37   0.008036786 0.3346208 0.30790037     C
C38   0.10031375 0.29855594 0.35591954     C
C39   0.30586293 0.53670704 0.37021887     C
C40   0.2857351 0.9053037 0.42818853     C
C41   0.27058625 0.0065212823 0.40490583     C
C42   0.32230034 0.43482375 0.3731782     C
C43   0.25723296 0.19473276 0.35733187     C
C44   0.34053397 0.24539769 0.37268922     C
C45   0.33284363 0.34874555 0.37276247     C
O46   0.38600552 0.59094644 0.3772192     O
O47   0.2054479 0.8512305 0.42314288     O
O48   0.21092802 0.56930727 0.3566313     O
O49   0.3805254 0.8728697 0.44373077     O
H50   0.90547293 0.6202966 0.3054346     H
H51   0.68923223 0.81406206 0.49923557     H
H52   0.82041186 0.4642789 0.33740577     H
H53   0.7509884 0.3397851 0.2347429     H
H54   0.6002492 0.37850398 0.11514371     H
H55   0.52027184 0.54400206 0.096590064     H
H56   0.5907296 0.6707762 0.1942427     H
H57   0.77252936 0.9654727 0.4928999     H
H58   0.84143883 0.07582593 0.612304     H
H59   0.9938996 0.026420712 0.72606826     H
H60    0.07716 0.8648384 0.72023964     H
H61   0.004736066 0.74950206 0.6090582     H
C62   0.7530114 0.6524024 0.33763185     C
C63   0.84203696 0.7821794 0.4674619     C
C64   0.6908593 0.7098094 0.39117604     C
C65   0.9040716 0.7276627 0.41080338     C
C66   0.7365723 0.772989 0.45568597     C
C67   0.85834086 0.66306853 0.347616     C
C68   0.5808711 0.7029898 0.38435504     C
C69   0.01398015 0.73696375 0.4154098     C
C70   0.7110182 0.57767737 0.27441645     C
C71   0.7557035 0.4833142 0.28416917     C
C72   0.7160931 0.4120937 0.2266222     C
C73   0.631212 0.43388745 0.1591573     C
C74   0.5863154 0.5271937 0.1485066     C
C75    0.62639 0.5989799 0.20488617     C
C76   0.88436073 0.8492312 0.53954226     C
C77    0.83797 0.9414732 0.5433919     C
C78   0.8771766 0.004789114 0.61062056     C
C79   0.9630848 0.97701216 0.67469573     C
C80   0.009694815 0.885756 0.67183185     C
C81   0.96947217 0.8212832 0.6065323     C
N82   0.101088285 0.7442103 0.4202343     N
N83   0.49365023 0.69743603 0.37805405     N
loop_
_geom_bond_atom_site_label_1
_geom_bond_atom_site_label_2
_geom_bond_distance
_geom_bond_site_symmetry_2
_ccdc_geom_bond_type
H0    C7     1.08715       .     D
H1    C6     1.08438       .     S
C2    C4     1.40237       .     S
C2    O10    1.28860       .     T
C2    O11    1.29336       .     S
C3    C5     1.40129       .     S
C3    O12    1.29141       .     D
C3    O13    1.29002       .     S
C4    C2     1.40237       .     S
C4    C8     1.18715       .     T
C5    C3     1.40129       .     S
C5    C9     1.18627       .     D
C6    H1     1.08438       .     S
C6    C7     1.32409       .     D
C6    C9     1.40830   1_556     S
C7    H0     1.08715       .     S
C7    C6     1.32409       .     T
C7    C8     1.41053       .     S
C8    C4     1.18715       .     S
C8    C7     1.41053       .     D
C9    C5     1.18627       .     S
C9    C6     1.40830   1_554     S
O10   C2     1.28860       .     T
O10   Zn14   1.72213       .     S
O11   C2     1.29336       .     D
O11   Zn15   1.99631       .     S
O12   C3     1.29141       .     S
O12   Zn14   1.98070       .     S
O13   C3     1.29002       .     D
O13   Zn15   1.70846       .     S
Zn14  O10    1.72213       .     S
Zn14  O12    1.98070       .     T
Zn14  Zn15   3.01682       .     S
Zn14  O46    1.56529       .     S
Zn14  O49    2.56464       .     S
Zn14  N83    1.29334       .     A
Zn15  O11    1.99631       .     A
Zn15  O13    1.70846       .     A
Zn15  Zn14   3.01682       .     S
Zn15  O47    1.62962       .     A
Zn15  O48    2.51233       .     S
Zn15  N82    1.23425       .     A
H16   C36    1.07722       .     S
H17   C37    1.08164   1_655     S
H18   C38    1.08178       .     S
H19   C28    1.08312       .     A
H20   C29    1.08017       .     S
H21   C30    1.07680       .     S
H22   C31    1.08221       .     A
H23   C32    1.08345       .     A
H24   C34    1.08354       .     S
H25   C35    1.08085       .     A
C26   C41    1.19181       .     S
C26   C43    1.42737       .     A
C27   C28    1.40083       .     S
C27   C32    1.40712       .     A
C27   C44    1.47985       .     A
C28   H19    1.08312       .     S
C28   C27    1.40083       .     S
C28   C29    1.39655       .     T
C29   H20    1.08017       .     S
C29   C28    1.39655       .     D
C29   C30    1.40011       .     S
C30   H21    1.07680       .     D
C30   C29    1.40011       .     S
C30   C31    1.39187       .     S
C31   H22    1.08221       .     T
C31   C30    1.39187       .     S
C31   C32    1.39291       .     S
C32   H23    1.08345       .     S
C32   C27    1.40712       .     A
C32   C31    1.39291       .     A
C33   C34    1.40380       .     A
C33   C38    1.40083       .     S
C33   C43    1.47214       .     A
C34   H24    1.08354       .     S
C34   C33    1.40380       .     A
C34   C35    1.39275       .     S
C35   H25    1.08085       .     S
C35   C34    1.39275       .     S
C35   C36    1.39310   1_455     A
C36   H16    1.07722       .     S
C36   C35    1.39310   1_655     S
C36   C37    1.39961   1_655     A
C37   H17    1.08164   1_455     A
C37   C36    1.39961   1_455     S
C37   C38    1.39696       .     A
C38   H18    1.08178       .     S
C38   C33    1.40083       .     A
C38   C37    1.39696       .     S
C39   C42    1.41562       .     A
C39   O46    1.33106       .     A
C39   O48    1.32685       .     S
C40   C41    1.40974   1_565     S
C40   O47    1.33020       .     T
C40   O49    1.32515       .     S
C41   C26    1.19181       .     D
C41   C40    1.40974   1_545     S
C42   C39    1.41562       .     S
C42   C45    1.19506       .     A
C43   C26    1.42737       .     A
C43   C33    1.47214       .     S
C43   C44    1.34748       .     S
C44   C27    1.47985       .     A
C44   C43    1.34748       .     A
C44   C45    1.43001       .     S
C45   C42    1.19506       .     A
C45   C44    1.43001       .     S
O46   Zn14   1.56529       .     A
O46   C39    1.33106       .     S
O47   Zn15   1.62962       .     S
O47   C40    1.33020       .     A
O48   Zn15   2.51233       .     A
O48   C39    1.32685       .     A
O49   Zn14   2.56464       .     S
O49   C40    1.32515       .     A
H50   C67    1.08381       .     T
H51   C66    1.08391       .     T
H52   C71    1.08298       .     S
H53   C72    1.08216       .     A
H54   C73    1.08242       .     A
H55   C74    1.08197       .     S
H56   C75    1.07957       .     S
H57   C77    1.08296       .     A
H58   C78    1.08218       .     A
H59   C79    1.08235   1_545     S
H60   C80    1.08046       .     S
H61   C81    1.08202   1_455     A
C62   C64    1.41993       .     A
C62   C67    1.41934       .     S
C62   C70    1.49191       .     A
C63   C65    1.42220       .     S
C63   C66    1.41886       .     A
C63   C76    1.49245       .     S
C64   C62    1.41993       .     S
C64   C66    1.40518       .     A
C64   C68    1.47489       .     A
C65   C63    1.42220       .     S
C65   C67    1.40773       .     S
C65   C69    1.47859   1_655     A
C66   H51    1.08391       .     A
C66   C63    1.41886       .     S
C66   C64    1.40518       .     A
C67   H50    1.08381       .     S
C67   C62    1.41934       .     A
C67   C65    1.40773       .     S
C68   C64    1.47489       .     S
C68   N83    1.16960       .     A
C69   C65    1.47859   1_455     A
C69   N82    1.17113       .     A
C70   C62    1.49191       .     S
C70   C71    1.40809       .     A
C70   C75    1.40878       .     T
C71   H52    1.08298       .     T
C71   C70    1.40809       .     S
C71   C72    1.39839       .     A
C72   H53    1.08216       .     A
C72   C71    1.39839       .     S
C72   C73    1.39644       .     S
C73   H54    1.08242       .     A
C73   C72    1.39644       .     A
C73   C74    1.39566       .     S
C74   H55    1.08197       .     S
C74   C73    1.39566       .     A
C74   C75    1.39751       .     A
C75   H56    1.07957       .     S
C75   C70    1.40878       .     A
C75   C74    1.39751       .     S
C76   C63    1.49245       .     A
C76   C77    1.40858       .     S
C76   C81    1.40873       .     S
C77   H57    1.08296       .     S
C77   C76    1.40858       .     S
C77   C78    1.39827   1_565     S
C78   H58    1.08218       .     S
C78   C77    1.39827   1_545     S
C78   C79    1.39551   1_545     S
C79   H59    1.08235   1_565     S
C79   C78    1.39551   1_565     S
C79   C80    1.39553   1_655     S
C80   H60    1.08046       .     S
C80   C79    1.39553   1_455     S
C80   C81    1.39700   1_455     S
C81   H61    1.08202   1_655     S
C81   C76    1.40873       .     S
C81   C80    1.39700   1_655     S
N82   Zn15   1.23425       .     S
N82   C69    1.17113       .     S
N83   Zn14   1.29334       .     S
N83   C68    1.16960       .     S
