data_I
_chemical_name_common  'results/nh3_target_2mmol/cif/sample_0'
_cell_length_a  9.82379
_cell_length_b 13.14478
_cell_length_c 20.20914
_cell_angle_alpha 94.68999
_cell_angle_beta  92.36123
_cell_angle_gamma 106.19970
_space_group_name_H-M_alt      'P 1'


loop_
_space_group_symop_operation_xyz
  'x, y, z' 

loop_
_atom_site_label
_atom_site_fract_x
_atom_site_fract_y
_atom_site_fract_z
_atom_site_type_symbol
H0    0.9440421 0.8111124 0.28194383     H
H1    0.6692024 0.22118402 0.2781601     H
H2    0.39204216 0.20490956 0.5083779     H
H3    0.25408593 0.08198404 0.5162477     H
H4    0.07145703 0.17872131 0.51225305     H
H5    0.20746095 0.23874223 0.57821137     H
H6    0.20635766 0.30093682 0.5017984     H
H7    0.8508375 0.13839221 0.2465276     H
H8    0.9611217 0.99192214 0.25258717     H
H9    0.5847945 0.8117794 0.3937627     H
H10   0.39108187 0.847701 0.38147664     H
H11   0.222508 0.93790907 0.41967487     H
C12   0.46809685 0.14956129 0.3672726     C
C13   0.5135268 0.2655809 0.3761316     C
C14   0.717349 0.68592674 0.3402233     C
C15   0.87569463 0.9525909 0.28197974     C
C16   0.75739217 0.7997404 0.33753505     C
C17   0.3464728 0.092760324 0.39767116     C
C18   0.3184767 0.9830883 0.3991673     C
C19   0.54361606 0.98989123 0.35074347     C
C20   0.41744214 0.9323506 0.37780496     C
C21   0.2791864 0.15951061 0.49419045     C
C22   0.18504924 0.2235111 0.5234262     C
C23   0.5582803 0.09542894 0.3374117     C
C24   0.6559615 0.946122 0.33651546     C
C25   0.7680204 0.99951893 0.29865268     C
C26   0.7687744 0.09751427 0.2770335     C
C27   0.66519237 0.14517522 0.29619318     C
C28   0.66080964 0.85109395 0.3602524     C
C29   0.8682789 0.851119 0.2999619     C
O30   0.41809404 0.3155545 0.3802365     O
O31   0.64860505 0.3148706 0.38209632     O
O32   0.58269703 0.6368719 0.33667105     O
O33   0.81320804 0.63618803 0.33853087     O
O34   0.25278938 0.14374912 0.42433485     O
Zn35  0.4586522 0.46473646 0.35047892    Zn
Zn36  0.77055025 0.48260647 0.36863878    Zn
H37   0.753839 0.4935778 0.15129447     H
H38   0.4755679 0.40748435 0.57590824     H
H39   0.925693 0.5571677 0.61397177     H
H40   0.3066091 0.4494811 0.104528904     H
H41   0.7982651 0.5061018 0.034517884     H
H42   0.44537902 0.41717017 0.6945707     H
H43   0.89593214 0.5612561 0.733628     H
H44   0.34956014 0.45493892 0.9869583     H
H45   0.4502023 0.57273185 0.9093575     H
H46   0.80628246 0.40920794 0.8142677     H
H47   0.48751774 0.5744825 0.79067147     H
H48   0.76495355 0.40225828 0.9323407     H
C49   0.72236466 0.4784415 0.513297     C
C50   0.5016279 0.46894783 0.20812201     C
C51   0.5775101 0.48168772 0.0014554262     C
C52   0.6683903 0.49025494 0.72252315     C
C53   0.52710074 0.4719046 0.13707995     C
C54   0.70255905 0.48247206 0.5851919     C
C55   0.5269659 0.5355491 0.88918775     C
C56   0.7290755 0.4455137 0.8349854     C
C57   0.5487964 0.53736645 0.82159936     C
C58   0.70566964 0.44203597 0.90239143     C
C59   0.6496742 0.49216098 0.7941827     C
C60   0.6040439 0.48679394 0.9301764     C
C61   0.664991 0.48627183 0.11600971     C
C62   0.5676312 0.4436933 0.6091099     C
C63   0.8205237 0.5252383 0.63091487     C
C64   0.41425842 0.4614324 0.08973825     C
C65   0.6901832 0.4921527 0.048965335     C
C66   0.55042976 0.44838852 0.67718685     C
C67   0.80377287 0.5282101 0.6991276     C
C68   0.43910316 0.46555457 0.022495627     C
O69   0.61664474 0.47300372 0.47082555     O
O70   0.6065694 0.4732167 0.250412     O
O71   0.37534773 0.46304408 0.22715402     O
O72   0.8478665 0.48317638 0.49408346     O
H73   0.036445286 0.570586 0.45457828     H
H74   0.28380093 0.55521303 0.45576188     H
H75   0.020693468 0.18613818 0.17263073     H
H76   0.19607623 0.17137732 0.16970354     H
H77   0.08700036 0.3267994 0.09158319     H
H78   0.2596227 0.30446792 0.088765316     H
H79   0.14525399 0.113454096 0.046178814     H
H80   0.09932987 0.20420654 0.9928452     H
H81   0.9719823 0.13694036 0.04825563     H
H82   0.7798902 0.4035843 0.16177122     H
H83   0.7152618 0.31515443 0.22354613     H
H84   0.78122324 0.2642848 0.0787332     H
H85   0.75243765 0.16579804 0.13720982     H
H86   0.5119173 0.17680362 0.15309064     H
H87   0.53240293 0.16129985 0.06497297     H
H88   0.5374478 0.2901277 0.10542812     H
C89   0.021870947 0.43673667 0.30617708     C
C90   0.068575345  0.52802 0.41275415     C
C91   0.21019581 0.5190667 0.41347837     C
C92   0.15883756 0.4239544 0.30893216     C
C93   0.11612684 0.3151173 0.27223113     C
C94   0.96455663 0.32906696 0.26542056     C
C95   0.1334981 0.22901301 0.16611582     C
C96   0.14593387 0.26656803 0.09641235     C
C97   0.0867689 0.17423852 0.04272318     C
C98   0.78438544 0.32841864 0.18124826     C
C99   0.7277875 0.23969987 0.124678105     C
C100  0.56743455 0.21584551 0.11123851     C
N101  0.9718398 0.48180953 0.36043695     N
N102  0.25320446 0.46261412 0.36239335     N
N103  0.1268963 0.2294334 0.31347376     N
N104  0.86122763 0.24692585 0.29770312     N
O105  0.19176352 0.31793112 0.21351787     O
O106  0.1491486 0.24816735 0.37788945     O
O107  0.07961759 0.13071458 0.28847355     O
O108  0.9287622 0.3382223 0.19751595     O
O109  0.86394846 0.25146756 0.36237952     O
O110  0.7967949 0.15649381 0.2638474     O
loop_
_geom_bond_atom_site_label_1
_geom_bond_atom_site_label_2
_geom_bond_distance
_geom_bond_site_symmetry_2
_ccdc_geom_bond_type
H0    C29    1.08282       .     D
H1    C27    1.08230       .     S
H2    C21    1.11541       .     S
H3    C21    1.11406       .     S
H4    C22    1.11075       .     S
H5    C22    1.11060       .     S
H6    C22    1.10999       .     S
H7    C26    1.08265       .     S
H8    C15    1.08333       .     A
H9    C28    1.08023       .     A
H10   C20    1.07934       .     S
H11   C18    1.08320       .     S
C12   C13    1.45809       .     A
C12   C17    1.41427       .     A
C12   C23    1.40746       .     A
C13   C12    1.45809       .     S
C13   O30    1.28780       .     S
C13   O31    1.29981       .     A
C14   C16    1.44311       .     S
C14   O32    1.29592       .     S
C14   O33    1.28762       .     A
C15   H8     1.08333       .     A
C15   C25    1.40441       .     A
C15   C29    1.39416       .     A
C16   C14    1.44311       .     A
C16   C28    1.38176       .     A
C16   C29    1.40030       .     A
C17   C12    1.41427       .     A
C17   C18    1.39334   1_545     S
C17   O34    1.38295       .     S
C18   H11    1.08320       .     A
C18   C17    1.39334   1_565     S
C18   C20    1.38769       .     A
C19   C20    1.41702       .     S
C19   C23    1.40380   1_565     S
C19   C24    1.40895       .     D
C20   H10    1.07934       .     S
C20   C18    1.38769       .     D
C20   C19    1.41702       .     S
C21   H2     1.11541       .     S
C21   H3     1.11406       .     S
C21   C22    1.51983       .     S
C21   O34    1.41250       .     S
C22   H4     1.11075       .     S
C22   H5     1.11060       .     S
C22   H6     1.10999       .     A
C22   C21    1.51983       .     A
C23   C12    1.40746       .     S
C23   C19    1.40380   1_545     S
C23   C27    1.41510       .     A
C24   C19    1.40895       .     A
C24   C25    1.41990       .     A
C24   C28    1.38636       .     S
C25   C15    1.40441       .     S
C25   C24    1.41990       .     A
C25   C26    1.39183   1_565     S
C26   H7     1.08265       .     S
C26   C25    1.39183   1_545     A
C26   C27    1.38794       .     A
C27   H1     1.08230       .     A
C27   C23    1.41510       .     A
C27   C26    1.38794       .     A
C28   H9     1.08023       .     A
C28   C16    1.38176       .     A
C28   C24    1.38636       .     A
C29   H0     1.08282       .     S
C29   C15    1.39416       .     S
C29   C16    1.40030       .     A
O30   C13    1.28780       .     S
O30   Zn35   2.03529       .     A
O31   C13    1.29981       .     S
O31   Zn35   3.15117       .     S
O32   C14    1.29592       .     D
O32   Zn36   3.18416       .     S
O33   C14    1.28762       .     S
O33   Zn36   2.09074       .     S
O34   C17    1.38295       .     D
O34   C21    1.41250       .     S
Zn35  O30    2.03529       .     S
Zn35  O31    3.15117       .     A
Zn35  Zn36   3.01160       .     A
Zn35  O69    2.80847       .     S
Zn35  O71    2.58736       .     S
Zn35  N102   2.03517       .     A
Zn36  O32    3.18416       .     A
Zn36  O33    2.09074       .     S
Zn36  Zn35   3.01160       .     A
Zn36  O70    2.80045       .     S
Zn36  O72    2.61513       .     A
Zn36  N101   1.99401       .     S
H37   C61    1.08179       .     A
H38   C62    1.07345       .     A
H39   C63    1.08237       .     S
H40   C64    1.08324       .     S
H41   C65    1.08254       .     A
H42   C66    1.08351       .     A
H43   C67    1.08328       .     S
H44   C68    1.08264   1_556     A
H45   C55    1.08265       .     S
H46   C56    1.08341       .     A
H47   C57    1.08343       .     S
H48   C58    1.08237       .     A
C49   C54    1.47246       .     A
C49   O69    1.30213       .     S
C49   O72    1.29432       .     S
C50   C53    1.46924       .     A
C50   O70    1.29755       .     A
C50   O71    1.29746       .     S
C51   C60    1.47799   1_554     A
C51   C65    1.40422       .     S
C51   C68    1.40570       .     A
C52   C59    1.46637       .     S
C52   C66    1.39978       .     D
C52   C67    1.40051       .     S
C53   C50    1.46924       .     D
C53   C61    1.40352       .     S
C53   C64    1.40324       .     S
C54   C49    1.47246       .     A
C54   C62    1.40232       .     A
C54   C63    1.40574       .     S
C55   H45    1.08265       .     S
C55   C57    1.39243       .     A
C55   C60    1.40575       .     A
C56   H46    1.08341       .     S
C56   C58    1.39310       .     A
C56   C59    1.40032       .     S
C57   H47    1.08343       .     A
C57   C55    1.39243       .     S
C57   C59    1.40077       .     A
C58   H48    1.08237       .     A
C58   C56    1.39310       .     S
C58   C60    1.40643       .     S
C59   C52    1.46637       .     A
C59   C56    1.40032       .     A
C59   C57    1.40077       .     S
C60   C51    1.47799   1_556     A
C60   C55    1.40575       .     S
C60   C58    1.40643       .     A
C61   H37    1.08179       .     S
C61   C53    1.40352       .     A
C61   C65    1.39179       .     A
C62   H38    1.07345       .     S
C62   C54    1.40232       .     S
C62   C66    1.39148       .     A
C63   H39    1.08237       .     A
C63   C54    1.40574       .     S
C63   C67    1.39370       .     A
C64   H40    1.08324       .     S
C64   C53    1.40324       .     A
C64   C68    1.39325       .     S
C65   H41    1.08254       .     D
C65   C51    1.40422       .     S
C65   C61    1.39179       .     S
C66   H42    1.08351       .     S
C66   C52    1.39978       .     A
C66   C62    1.39148       .     A
C67   H43    1.08328       .     A
C67   C52    1.40051       .     D
C67   C63    1.39370       .     D
C68   H44    1.08264   1_554     A
C68   C51    1.40570       .     A
C68   C64    1.39325       .     D
O69   Zn35   2.80847       .     S
O69   C49    1.30213       .     D
O70   Zn36   2.80045       .     S
O70   C50    1.29755       .     A
O71   Zn35   2.58736       .     S
O71   C50    1.29746       .     S
O72   Zn36   2.61513       .     S
O72   C49    1.29432       .     S
H73   C90    1.08180       .     S
H74   C91    1.08157       .     S
H75   C95    1.11296       .     S
H76   C95    1.10559       .     S
H77   C96    1.11143       .     S
H78   C96    1.11166       .     S
H79   C97    1.11146       .     S
H80   C97    1.11108   1_556     S
H81   C97    1.11145   1_655     S
H82   C98    1.10436       .     S
H83   C98    1.10831       .     S
H84   C99    1.11207       .     S
H85   C99    1.11035       .     S
H86   C100   1.10861       .     S
H87   C100   1.11036       .     S
H88   C100   1.10922       .     S
C89   C92    1.40117       .     S
C89   C94    1.52480   1_455     S
C89   N101   1.37683   1_455     S
C90   H73    1.08180       .     S
C90   C91    1.42815       .     S
C90   N101   1.37113   1_455     S
C91   H74    1.08157       .     S
C91   C90    1.42815       .     A
C91   N102   1.37134       .     A
C92   C89    1.40117       .     A
C92   C93    1.49626       .     D
C92   N102   1.36005       .     D
C93   C92    1.49626       .     A
C93   C94    1.55218   1_455     A
C93   N103   1.47890       .     D
C93   O105   1.42332       .     S
C94   C89    1.52480   1_655     D
C94   C93    1.55218   1_655     S
C94   N104   1.47650       .     A
C94   O108   1.42555       .     S
C95   H75    1.11296       .     S
C95   H76    1.10559       .     S
C95   C96    1.52877       .     S
C95   O105   1.41769       .     S
C96   H77    1.11143       .     S
C96   H78    1.11166       .     S
C96   C95    1.52877       .     S
C96   C97    1.52549       .     S
C97   H79    1.11146       .     S
C97   H80    1.11109   1_554     S
C97   H81    1.11145   1_455     S
C97   C96    1.52549       .     S
C98   H82    1.10436       .     S
C98   H83    1.10831       .     S
C98   C99    1.53099       .     S
C98   O108   1.41032       .     S
C99   H84    1.11207       .     S
C99   H85    1.11035       .     S
C99   C98    1.53099       .     S
C99   C100   1.52604       .     S
C100  H86    1.10861       .     S
C100  H87    1.11036       .     S
C100  H88    1.10922       .     S
C100  C99    1.52604       .     S
N101  Zn36   1.99401       .     S
N101  C89    1.37683   1_655     S
N101  C90    1.37114   1_655     S
N102  Zn35   2.03517       .     S
N102  C91    1.37134       .     S
N102  C92    1.36005       .     S
N103  C93    1.47890       .     S
N103  O106   1.30275       .     S
N103  O107   1.30077       .     S
N104  C94    1.47650       .     S
N104  O109   1.30236       .     S
N104  O110   1.30127       .     S
O105  C93    1.42332       .     S
O105  C95    1.41769       .     S
O106  N103   1.30275       .     S
O107  N103   1.30077       .     S
O108  C94    1.42555       .     S
O108  C98    1.41032       .     S
O109  N104   1.30236       .     S
O110  N104   1.30127       .     S
