data_I
_chemical_name_common  'results/nh3_target_2mmol/cif/sample_3'
_cell_length_a 12.81849
_cell_length_b 16.39714
_cell_length_c 25.04361
_cell_angle_alpha 85.66161
_cell_angle_beta  89.24227
_cell_angle_gamma 85.11192
_space_group_name_H-M_alt      'P 1'


loop_
_space_group_symop_operation_xyz
  'x, y, z' 

loop_
_atom_site_label
_atom_site_fract_x
_atom_site_fract_y
_atom_site_fract_z
_atom_site_type_symbol
H0    0.63157535 0.7569704 0.27836823     H
H1    0.58834106 0.17837441 0.17441471     H
H2    0.77703714   0.9161 0.032782808     H
H3    0.5082907 0.87819475 0.43818483     H
H4    0.50336945 0.07079995 0.9183533     H
H5    0.8033255 0.0069309473 0.51518744     H
H6    0.47967485 0.058638334 0.015793186     H
H7    0.7780323 0.017324567 0.41771418     H
C8    0.71710694 0.948997 0.007502715     C
C9    0.5734391 0.9051184 0.45511603     C
C10   0.7303808 0.95405626 0.95216584     C
C11   0.5891239 0.89676523 0.5100961     C
C12   0.65314615 0.99873924 0.9199251     C
C13   0.67268926 0.9334916 0.5317645     C
C14   0.56367356 0.037077904 0.9430868     C
C15   0.7396147 0.97784215 0.49850857     C
C16   0.5498973 0.030085802 0.9981858     C
C17   0.7249109 0.9842388 0.44347855     C
C18   0.6267347 0.986369 0.030555714     C
C19   0.6415201 0.9481436 0.4216893     C
C20   0.66109824 0.00364542 0.8621479     C
C21   0.68668604 0.93013996 0.5889943     C
C22   0.61006576 0.030255914 0.33852583     C
C23   0.6132653 0.9050213 0.11425228     C
C24   0.6318851 0.8840365 0.3388015     C
C25   0.6075504 0.05111909 0.11364005     C
C26   0.62151927 0.88827175 0.28331003     C
C27   0.60207266 0.047052503 0.16939548     C
C28   0.61045337 0.9655965 0.2546249     C
C29   0.6077508 0.9697661 0.19819997     C
C30   0.6041799 0.03846526 0.2822067     C
C31   0.612823 0.89690095 0.17065282     C
C32   0.6244529 0.8165373 0.25625035     C
C33   0.5939526 0.118817806 0.19655913     C
C34   0.619315 0.81964344 0.2006894     C
C35   0.59403527 0.115749955 0.25221807     C
I36   0.6263584 0.7016854 0.16938898     I
I37   0.5823515 0.23370874 0.28360727     I
I38     0.8702 0.896489 0.9204207     I
I39   0.4805013 0.83199936 0.5577143     I
N40   0.62676245 0.95429313 0.36500388     N
N41   0.6141963 0.98079896 0.087474555     N
O42   0.67768574 0.9352417 0.8387569     O
O43   0.6716365 0.998713 0.61227274     O
O44   0.64272535 0.07560587 0.83637106     O
O45   0.706597 0.8583491 0.6146586     O
O46   0.59917915 0.09673834 0.36715832     O
O47   0.61302805 0.83858985 0.08581136     O
O48   0.64898765 0.81022966 0.36642948     O
O49   0.6086462 0.124761105 0.08566958     O
C50   0.8712873 0.9884685 0.72772557     C
C51   0.30350178 0.008076668 0.7195247     C
C52   0.15540405 0.92841554 0.7178039     C
C53   0.1986635 0.00040733814 0.730598     C
C54   0.4826095 0.939775 0.72140646     C
C55   0.37045628 0.93584794 0.71441156     C
C56   0.98353666 0.9927911 0.73414576     C
C57   0.13523668 0.06392169 0.7524543     C
C58   0.21866159 0.865205 0.69546837     C
C59   0.026886795 0.06572151 0.74683493     C
C60   0.3271341 0.8635196 0.7007082     C
C61   0.050684262 0.92059827 0.7291416     C
I62   0.34015676 0.12762892 0.68601334     I
I63   0.01466249 0.8008062 0.76246244     I
I64   0.41703573 0.751749 0.6850111     I
I65   0.9382351 0.17955494 0.7593515     I
I66   0.19910257 0.1403122 0.8078824     I
I67   0.15386787 0.78930515 0.6400144     I
O68   0.83807945 0.9161099 0.72878313     O
O69   0.5157348 0.012057781 0.7206186     O
O70   0.80879056 0.055129647 0.71965826     O
O71   0.5450237 0.8730382 0.72974354     O
Zn72  0.65182984 0.055869102 0.7374259    Zn
Zn73   0.69985 0.8762738 0.716696    Zn
H74   0.45841533 0.30181682 0.8300048     H
H75   0.49667352 0.26721382 0.89763975     H
H76   0.4955984 0.37416473 0.8752242     H
H77   0.64735687 0.23063669 0.842734     H
H78   0.678597 0.31038564 0.8775246     H
H79   0.7269402 0.5371274 0.552841     H
H80   0.6043487 0.58055246 0.57845515     H
H81   0.6790605 0.63876045 0.5295956     H
H82   0.70287573 0.69194037 0.6125775     H
H83   0.8252027 0.6343603 0.5996416     H
C84   0.7024328 0.4462956 0.70475817     C
C85   0.7489048 0.49591333 0.6647546     C
C86   0.62679666 0.29604214 0.84507746     C
C87   0.5124404 0.3107804 0.86292624     C
C88   0.74136424 0.63030165 0.6103918     C
C89   0.6844477 0.594271 0.56529564     C
C90   0.6540345 0.43231514 0.79728127     C
C91   0.73048085 0.58241594 0.66384155     C
C92   0.6484985 0.34662387 0.79354966     C
C93   0.6492795 0.570776 0.7491925     C
C94   0.68668133 0.36174026 0.70021164     C
C95   0.6675159 0.4835273 0.75076187     C
I96   0.66863436 0.32079706 0.6223237     I
I97   0.5066381 0.6122307 0.78760827     I
I98   0.88306177 0.44652843 0.62193465     I
I99   0.6787334 0.48094207 0.8734758     I
N100  0.6595507 0.31234518 0.7443656     N
N101  0.68903947 0.6201161 0.7080449     N
loop_
_geom_bond_atom_site_label_1
_geom_bond_atom_site_label_2
_geom_bond_distance
_geom_bond_site_symmetry_2
_ccdc_geom_bond_type
H0    C32    1.08325       .     D
H1    C33    1.08330       .     S
H2    C8     1.08283       .     S
H3    C9     1.08287       .     S
H4    C14    1.08396       .     A
H5    C15    1.08373   1_545     A
H6    C16    1.08296   1_554     S
H7    C17    1.08291   1_545     A
C8    H2     1.08283       .     A
C8    C10    1.39110   1_554     S
C8    C18    1.40202       .     A
C9    H3     1.08287       .     A
C9    C11    1.38893       .     S
C9    C19    1.39869       .     S
C10   C8     1.39110   1_556     D
C10   C12    1.40603       .     D
C10   I38    2.12670       .     S
C11   C9     1.38893       .     S
C11   C13    1.40688       .     S
C11   I39    2.12252       .     S
C12   C10    1.40603       .     S
C12   C14    1.40062   1_565     A
C12   C20    1.44582   1_565     A
C13   C11    1.40688       .     A
C13   C15    1.39794       .     A
C13   C21    1.44312       .     S
C14   H4     1.08396       .     A
C14   C12    1.40062   1_545     A
C14   C16    1.38617       .     A
C15   H5     1.08373   1_565     A
C15   C13    1.39794       .     S
C15   C17    1.38833       .     A
C16   H6     1.08296   1_556     A
C16   C14    1.38617       .     S
C16   C18    1.39786   1_546     A
C17   H7     1.08291   1_565     S
C17   C15    1.38833       .     S
C17   C19    1.40100       .     S
C18   C8     1.40202       .     D
C18   C16    1.39786   1_564     S
C18   N41    1.42928       .     D
C19   C9     1.39869       .     S
C19   C17    1.40100       .     S
C19   N40    1.42949       .     A
C20   C12    1.44582   1_545     A
C20   O42    1.30456   1_545     S
C20   O44    1.30610       .     A
C21   C13    1.44312       .     A
C21   O43    1.30407       .     S
C21   O45    1.30485       .     A
C22   C30    1.40908       .     A
C22   N40    1.36760   1_545     S
C22   O46    1.34600       .     S
C23   C31    1.40865       .     D
C23   N41    1.36748       .     S
C23   O47    1.34606       .     D
C24   C26    1.39373       .     S
C24   N40    1.36469       .     S
C24   O48    1.35038       .     S
C25   C27    1.39399       .     A
C25   N41    1.36465   1_545     A
C25   O49    1.35042       .     S
C26   C24    1.39373       .     A
C26   C28    1.40642       .     A
C26   C32    1.39878       .     S
C27   C25    1.39399       .     A
C27   C29    1.40678   1_545     A
C27   C33    1.39882       .     S
C28   C26    1.40642       .     S
C28   C29    1.41030       .     D
C28   C30    1.42066   1_565     D
C29   C27    1.40678   1_565     S
C29   C28    1.41030       .     S
C29   C31    1.42054       .     S
C30   C22    1.40908       .     S
C30   C28    1.42066   1_545     S
C30   C35    1.42034       .     A
C31   C23    1.40865       .     A
C31   C29    1.42054       .     A
C31   C34    1.42024       .     A
C32   H0     1.08325       .     S
C32   C26    1.39878       .     A
C32   C34    1.39075       .     A
C33   H1     1.08330       .     A
C33   C27    1.39882       .     A
C33   C35    1.39101       .     S
C34   C31    1.42024       .     A
C34   C32    1.39075       .     A
C34   I36    2.13574       .     S
C35   C30    1.42034       .     A
C35   C33    1.39101       .     S
C35   I37    2.13519       .     S
I36   C34    2.13574       .     S
I37   C35    2.13519       .     D
I38   C10    2.12670       .     S
I39   C11    2.12252       .     D
N40   C19    1.42949       .     S
N40   C22    1.36760   1_565     S
N40   C24    1.36469       .     A
N41   C18    1.42928       .     A
N41   C23    1.36748       .     S
N41   C25    1.36465   1_565     A
O42   C20    1.30456   1_565     A
O42   Zn73   3.27679       .     S
O43   C21    1.30407       .     A
O43   Zn72   3.33907   1_565     A
O44   C20    1.30610       .     S
O44   Zn72   2.52306       .     S
O45   C21    1.30485       .     D
O45   Zn73   2.59371       .     S
O46   C22    1.34600       .     D
O47   C23    1.34606       .     S
O48   C24    1.35038       .     S
O49   C25    1.35042       .     S
C50   C56    1.45823       .     A
C50   O68    1.29253       .     A
C50   O70    1.30346   1_565     S
C51   C53    1.38288       .     A
C51   C55    1.41509   1_545     A
C51   I62    2.15999       .     A
C52   C53    1.40610   1_565     S
C52   C58    1.40611       .     S
C52   C61    1.38300       .     A
C53   C51    1.38288       .     A
C53   C52    1.40610   1_545     A
C53   C57    1.40550       .     A
C54   C55    1.45800       .     S
C54   O69    1.29130   1_565     A
C54   O71    1.30453       .     A
C55   C51    1.41509   1_565     S
C55   C54    1.45800       .     S
C55   C60    1.41829       .     D
C56   C50    1.45823       .     S
C56   C59    1.41959   1_665     D
C56   C61    1.41555   1_655     S
C57   C53    1.40550       .     S
C57   C59    1.39543       .     S
C57   I66    2.15266       .     A
C58   C52    1.40611       .     A
C58   C60    1.39609       .     S
C58   I67    2.15303       .     A
C59   C56    1.41959   1_445     A
C59   C57    1.39543       .     A
C59   I65    2.14271   1_455     S
C60   C55    1.41829       .     S
C60   C58    1.39609       .     A
C60   I64    2.13975       .     A
C61   C52    1.38300       .     A
C61   C56    1.41555   1_455     A
C61   I63    2.15968       .     S
I62   C51    2.15999       .     A
I63   C61    2.15968       .     A
I64   C60    2.13975       .     S
I65   C59    2.14271   1_655     S
I66   C57    2.15266       .     D
I67   C58    2.15303       .     S
O68   C50    1.29253       .     S
O68   Zn73   1.97465       .     S
O69   C54    1.29131   1_545     S
O69   Zn72   2.00384       .     S
O70   C50    1.30346   1_545     S
O70   Zn72   2.05408       .     S
O71   C54    1.30453       .     S
O71   Zn73   2.01160       .     S
Zn72  O43    3.33907   1_545     S
Zn72  O44    2.52306       .     S
Zn72  O69    2.00384       .     A
Zn72  O70    2.05408       .     A
Zn72  Zn73   3.03883   1_545     S
Zn72  N100   4.23178       .     A
Zn73  O42    3.27679       .     S
Zn73  O45    2.59371       .     A
Zn73  O68    1.97465       .     A
Zn73  O71    2.01160       .     S
Zn73  Zn72   3.03883   1_565     A
Zn73  N101   4.23627       .     A
H74   C87    1.10983       .     A
H75   C87    1.11038       .     A
H76   C87    1.10909       .     A
H77   C86    1.08813       .     S
H78   C86    1.10739       .     S
H79   C89    1.10665       .     S
H80   C89    1.11023       .     A
H81   C89    1.10935       .     S
H82   C88    1.09114       .     S
H83   C88    1.11071       .     S
C84   C85    1.40141       .     S
C84   C94    1.43116       .     S
C84   C95    1.39520       .     S
C85   C84    1.40141       .     S
C85   C91    1.41644       .     S
C85   I98    2.14670       .     S
C86   H77    1.08813       .     S
C86   H78    1.10739       .     S
C86   C87    1.53155       .     S
C86   C92    1.51605       .     A
C87   H74    1.10983       .     A
C87   H75    1.11038       .     S
C87   H76    1.10909       .     A
C87   C86    1.53155       .     S
C88   H82    1.09114       .     A
C88   H83    1.11071       .     A
C88   C89    1.53395       .     S
C88   C91    1.51079       .     A
C89   H79    1.10665       .     A
C89   H80    1.11023       .     A
C89   H81    1.10935       .     A
C89   C88    1.53395       .     A
C90   C92    1.42306       .     S
C90   C95    1.40131       .     S
C90   I99    2.16018       .     S
C91   C85    1.41644       .     A
C91   C88    1.51079       .     S
C91   N101   1.38630       .     S
C92   C86    1.51605       .     S
C92   C90    1.42306       .     S
C92   N100   1.39275       .     S
C93   C95    1.42746       .     S
C93   I97    2.13809       .     S
C93   N101   1.38074       .     S
C94   C84    1.43116       .     S
C94   I96    2.13204       .     S
C94   N100   1.37914       .     S
C95   C84    1.39520       .     S
C95   C90    1.40131       .     S
C95   C93    1.42746       .     S
I96   C94    2.13204       .     S
I97   C93    2.13809       .     S
I98   C85    2.14670       .     S
I99   C90    2.16018       .     S
N100  Zn72   4.23178       .     S
N100  C92    1.39275       .     S
N100  C94    1.37914       .     S
N101  Zn73   4.23627       .     S
N101  C91    1.38630       .     S
N101  C93    1.38074       .     S
