data_I
_chemical_name_common  'results/nh3_target_2mmol/cif/sample_6'
_cell_length_a 12.69732
_cell_length_b 13.68734
_cell_length_c 15.28099
_cell_angle_alpha 87.42751
_cell_angle_beta  74.25578
_cell_angle_gamma 82.23594
_space_group_name_H-M_alt      'P 1'


loop_
_space_group_symop_operation_xyz
  'x, y, z' 

loop_
_atom_site_label
_atom_site_fract_x
_atom_site_fract_y
_atom_site_fract_z
_atom_site_type_symbol
Zn0   0.21902438 0.7825171 0.8764591    Zn
Zn1   0.47346056 0.74674207 0.82168096    Zn
H2    0.5975661 0.580228 0.20621346     H
H3    0.058630668 0.70534277 0.5077464     H
H4    0.30273744 0.75423187 0.1551229     H
H5    0.38472366 0.7322978 0.54479444     H
H6    0.95162433 0.8287014 0.24598527     H
H7    0.73350304 0.6428408 0.4549976     H
H8    0.7148411 0.5978487 0.30665994     H
H9    0.9551581 0.77641803 0.4011053     H
H10   0.48717022 0.5943556 0.103254825     H
H11   0.39883664 0.44911745 0.17942977     H
H12   0.3477536 0.5035965 0.08653618     H
H13   0.26962054 0.5306341 0.20169908     H
H14   0.16522308 0.6668634 0.61239964     H
H15   0.2674172 0.51880306 0.64582884     H
H16   0.34851938 0.5099138 0.52943176     H
H17   0.20395114 0.49255913 0.55845934     H
C18   0.42259026 0.6273778 0.24054381     C
C19   0.23543845 0.66997576 0.47259355     C
C20   0.5254835 0.6087123 0.25924814     C
C21   0.1342507 0.6996935 0.4531204     C
C22   0.5635403 0.7081963 0.6031548     C
C23   0.12947983 0.8140296 0.094287075     C
C24   0.5586479 0.6881511 0.51112664     C
C25   0.12782978 0.79194134 0.1892454     C
C26   0.64145327 0.6236713 0.3595459     C
C27   0.031210542 0.76770425 0.34703335     C
C28   0.6523553 0.6508118 0.44334495     C
C29   0.02938999 0.7990054 0.25914633     C
C30   0.45484492 0.6961028 0.494948     C
C31   0.22661857 0.7518503 0.20766225     C
C32   0.44113356 0.66101444 0.41497812     C
C33   0.2286577 0.7119442 0.29287022     C
C34   0.53645486 0.63049495 0.3443113     C
C35   0.13077721 0.72605526 0.36469358     C
C36   0.33506906 0.6649134 0.40072337     C
C37   0.32834837 0.6671004 0.3099944     C
C38   0.35441676 0.516422 0.15596762     C
C39   0.26531208 0.5346679 0.5743638     C
N40   0.41406322 0.5997664 0.15403707     N
N41   0.23489015 0.6392964 0.5631722     N
O42   0.6543661 0.68879354 0.6257404     O
O43   0.0393033 0.83760834 0.07140995     O
O44   0.47275534 0.73134017 0.6640798     O
O45   0.22091411 0.79506165 0.03307056     O
H46   0.46945158 0.24934621 0.79911417     H
H47   0.22077999 0.2814975 0.8989397     H
C48   0.37281013 0.39261144 0.8306763     C
C49   0.31740645 0.13823046 0.867354     C
C50   0.3275689 0.58274895 0.8387246     C
C51   0.3626201 0.9480813 0.8592231     C
C52   0.33697876 0.050979145 0.86411333     C
C53   0.35323146 0.47986406 0.8338699     C
C54   0.30189252 0.24219629 0.8679811     C
C55   0.38833874 0.2886471 0.83007985     C
O56   0.40650073 0.63505656 0.8041245     O
O57   0.28369454 0.89578485 0.89383507     O
O58   0.22693592 0.6199503 0.8775242     O
O59   0.4632594 0.910891 0.82043535     O
H60   0.043691754 0.012027264 0.875833     H
H61   0.8468165 0.049843907 0.8810678     H
H62   0.6751999 0.99333143 0.8749743     H
H63   0.95647603 0.60156405 0.80822015     H
H64   0.8455516 0.47964785 0.7870328     H
H65   0.04067397 0.71054804 0.8411764     H
H66   0.64327526 0.52436817 0.80934507     H
H67   0.57227945 0.8649745 0.8591043     H
C68   0.88645023 0.974358 0.8717808     C
C69   0.6936139 0.57858104 0.81762654     C
C70   0.8065087 0.5537608 0.80578667     C
C71   0.8695059 0.6247057 0.8182092     C
C72   0.82048774 0.722522 0.8392754     C
C73   0.7056916 0.7449578 0.8466769     C
C74   0.8814557 0.7992343 0.849892     C
C75   0.82784766 0.89748114 0.86287683     C
C76   0.71645206 0.91831475 0.86624104     C
C77   0.656515 0.843262 0.85830516     C
C78   0.99395955 0.7828538 0.8484599     C
C79   0.99731815 0.9534164 0.86889553     C
N80   0.047608733 0.85925376 0.8578919     N
N81   0.6449752 0.67157084 0.8392759     N
loop_
_geom_bond_atom_site_label_1
_geom_bond_atom_site_label_2
_geom_bond_distance
_geom_bond_site_symmetry_2
_ccdc_geom_bond_type
Zn0   Zn1    3.08535       .     S
Zn0   O43    3.27081   1_556     S
Zn0   O44    3.91442       .     S
Zn0   O57    1.90985       .     S
Zn0   O58    2.21330       .     S
Zn0   N80    2.36889       .     S
Zn1   Zn0    3.08535       .     S
Zn1   O42    3.29529       .     S
Zn1   O45    3.89256   1_556     S
Zn1   O56    1.90878       .     S
Zn1   O59    2.23248       .     S
Zn1   N81    2.35821       .     S
H2    C20    1.08439       .     S
H3    C21    1.08419       .     S
H4    C31    1.07927       .     S
H5    C30    1.07935       .     S
H6    C29    1.08288   1_655     A
H7    C28    1.08291       .     A
H8    C26    1.08366       .     A
H9    C27    1.08359   1_655     A
H10   N40    1.03199       .     A
H11   C38    1.11131       .     A
H12   C38    1.11045       .     A
H13   C38    1.11028       .     A
H14   N41    1.03195       .     A
H15   C39    1.11060       .     A
H16   C39    1.11038       .     A
H17   C39    1.11128       .     A
C18   C20    1.39990       .     A
C18   C37    1.42851       .     S
C18   N40    1.42673       .     A
C19   C21    1.40006       .     A
C19   C36    1.42844       .     S
C19   N41    1.42674       .     A
C20   H2     1.08439       .     A
C20   C18    1.39990       .     A
C20   C34    1.39362       .     S
C21   H3     1.08419       .     A
C21   C19    1.40006       .     S
C21   C35    1.39366       .     S
C22   C24    1.46404       .     A
C22   O42    1.28243       .     S
C22   O44    1.28113       .     A
C23   C25    1.46398       .     S
C23   O43    1.28244       .     S
C23   O45    1.28114       .     D
C24   C22    1.46404       .     S
C24   C28    1.40148       .     D
C24   C30    1.39492       .     S
C25   C23    1.46398       .     S
C25   C29    1.40167       .     S
C25   C31    1.39480       .     S
C26   H8     1.08366       .     S
C26   C28    1.39632       .     S
C26   C34    1.40470       .     S
C27   H9     1.08359   1_455     S
C27   C29    1.39652       .     S
C27   C35    1.40453       .     S
C28   H7     1.08291       .     S
C28   C24    1.40148       .     S
C28   C26    1.39632       .     S
C29   H6     1.08288   1_455     S
C29   C25    1.40167       .     S
C29   C27    1.39652       .     A
C30   H5     1.07935       .     A
C30   C24    1.39492       .     A
C30   C32    1.39464       .     A
C31   H4     1.07927       .     A
C31   C25    1.39480       .     A
C31   C33    1.39464       .     A
C32   C30    1.39464       .     A
C32   C34    1.41425       .     A
C32   C36    1.41518       .     A
C33   C31    1.39464       .     A
C33   C35    1.41436       .     A
C33   C37    1.41523       .     A
C34   C20    1.39362       .     S
C34   C26    1.40470       .     A
C34   C32    1.41425       .     A
C35   C21    1.39366       .     S
C35   C27    1.40453       .     A
C35   C33    1.41436       .     A
C36   C19    1.42844       .     A
C36   C32    1.41518       .     S
C36   C37    1.41073       .     A
C37   C18    1.42851       .     S
C37   C33    1.41523       .     S
C37   C36    1.41073       .     A
C38   H11    1.11131       .     S
C38   H12    1.11045       .     A
C38   H13    1.11028       .     S
C38   N40    1.44709       .     S
C39   H15    1.11060       .     D
C39   H16    1.11038       .     S
C39   H17    1.11128       .     D
C39   N41    1.44697       .     S
N40   H10    1.03199       .     D
N40   C18    1.42673       .     S
N40   C38    1.44709       .     S
N41   H14    1.03195       .     T
N41   C19    1.42674       .     S
N41   C39    1.44697       .     S
O42   Zn1    3.29529       .     D
O42   C22    1.28243       .     S
O43   Zn0    3.27081   1_554     S
O43   C23    1.28244       .     T
O44   Zn0    3.91442       .     S
O44   C22    1.28113       .     D
O45   Zn1    3.89256   1_554     S
O45   C23    1.28114       .     D
H46   C55    1.08751       .     S
H47   C54    1.08749       .     S
C48   C53    1.18695       .     T
C48   C55    1.41006       .     S
C49   C52    1.18695       .     S
C49   C54    1.41008       .     D
C50   C53    1.40251       .     S
C50   O56    1.29186       .     S
C50   O58    1.29756       .     T
C51   C52    1.40268   1_565     S
C51   O57    1.29174       .     D
C51   O59    1.29755       .     S
C52   C49    1.18695       .     S
C52   C51    1.40268   1_545     S
C53   C48    1.18695       .     A
C53   C50    1.40251       .     A
C54   H47    1.08749       .     A
C54   C49    1.41008       .     S
C54   C55    1.32475       .     A
C55   H46    1.08751       .     A
C55   C48    1.41006       .     A
C55   C54    1.32475       .     A
O56   Zn1    1.90878       .     S
O56   C50    1.29186       .     A
O57   Zn0    1.90985       .     A
O57   C51    1.29174       .     S
O58   Zn0    2.21330       .     A
O58   C50    1.29756       .     A
O59   Zn1    2.23248       .     A
O59   C51    1.29755       .     A
H60   C79    1.08197   1_445     A
H61   C68    1.08389   1_545     S
H62   C76    1.08420       .     A
H63   C71    1.07770       .     A
H64   C70    1.08168       .     S
H65   C78    1.07662   1_455     S
H66   C69    1.07500       .     S
H67   C77    1.06761       .     S
C68   H61    1.08389   1_565     A
C68   C75    1.39955       .     A
C68   C79    1.38716       .     A
C69   H66    1.07500       .     S
C69   C70    1.39146       .     A
C69   N81    1.35106       .     A
C70   H64    1.08168       .     A
C70   C69    1.39146       .     A
C70   C71    1.38838       .     S
C71   H63    1.07770       .     A
C71   C70    1.38838       .     A
C71   C72    1.41008       .     S
C72   C71    1.41008       .     A
C72   C73    1.42282       .     A
C72   C74    1.42518       .     A
C73   C72    1.42282       .     A
C73   C77    1.40219       .     A
C73   N81    1.37217       .     S
C74   C72    1.42518       .     A
C74   C75    1.41928       .     A
C74   C78    1.41007       .     S
C75   C68    1.39955       .     S
C75   C74    1.41928       .     S
C75   C76    1.39192       .     S
C76   H62    1.08420       .     S
C76   C75    1.39192       .     S
C76   C77    1.38624       .     S
C77   H67    1.06761       .     S
C77   C73    1.40219       .     S
C77   C76    1.38624       .     S
C78   H65    1.07662   1_655     S
C78   C74    1.41007       .     S
C78   N80    1.35558   1_655     S
C79   H60    1.08197   1_665     S
C79   C68    1.38716       .     S
C79   N80    1.35497   1_655     S
N80   Zn0    2.36889       .     S
N80   C78    1.35558   1_455     S
N80   C79    1.35497   1_455     S
N81   Zn1    2.35821       .     S
N81   C69    1.35106       .     S
N81   C73    1.37217       .     S
