data_I
_chemical_name_common  'results/nh3_target_2mmol/cif/sample_1'
_cell_length_a 19.63895
_cell_length_b 19.54133
_cell_length_c 19.89655
_cell_angle_alpha 70.95059
_cell_angle_beta  74.91748
_cell_angle_gamma 79.47673
_space_group_name_H-M_alt      'P 1'


loop_
_space_group_symop_operation_xyz
  'x, y, z' 

loop_
_atom_site_label
_atom_site_fract_x
_atom_site_fract_y
_atom_site_fract_z
_atom_site_type_symbol
Zn0   0.93460006 0.36399668 0.63022184    Zn
Zn1   0.9329168 0.3090653 0.50753015    Zn
Zn2   0.8742417 0.8962207 0.58783305    Zn
Zn3   0.99127686 0.7884577 0.54576486    Zn
C4    0.24114576 0.7895401 0.2523906     C
C5    0.17207006 0.8641467 0.3408894     C
C6    0.20796831 0.824362 0.29237515     C
C7    0.14081366 0.89556295 0.38453227     C
C8    0.2860331 0.7492712 0.20623256     C
C9    0.09871846 0.9278829 0.4386871     C
O10   0.07038918 0.9931669 0.41884726     O
O11   0.08294804 0.88659465 0.5029694     O
O12   0.29508734 0.781704 0.13694663     O
O13   0.28663912 0.6795205 0.22987193     O
C14   0.7173558 0.9102164 0.7274709     C
C15   0.6753714 0.81914115 0.8548766     C
C16   0.6964112 0.8684034 0.78589946     C
C17   0.65886503 0.7747571 0.9127785     C
C18   0.746813 0.96111315 0.6606912     C
C19   0.6381716 0.7176214 0.9777569     C
O20   0.58275855 0.72957283 0.024261117     O
O21   0.6699049 0.65467924 0.9810403     O
O22   0.7106732 0.024442315 0.64449006     O
O23   0.7834758 0.934498 0.6093992     O
H24   0.21231735 0.20350708 0.7447212     H
H25   0.11033909 0.18369666 0.854057     H
H26   0.28748488 0.13319597 0.81586635     H
H27   0.18553466 0.113414235 0.9252238     H
H28   0.13455053 0.038562346 0.95045227     H
H29   0.31140646 0.07291712 0.7606722     H
H30   0.05876612 0.109400414 0.87866205     H
H31   0.23566766 0.14382248 0.6889154     H
C32   0.14276543 0.03852331 0.777014     C
C33   0.19561566 0.98905843 0.82712007     C
C34   0.09256421 0.16773263 0.73157454     C
C35   0.27427655 0.9977001 0.9037321     C
C36   0.31422865 0.96362746 0.9411788     C
C37   0.36135098 0.9225111 0.98501223     C
C38   0.008832923 0.2527412 0.6509607     C
C39   0.2655582 0.09809337 0.7941473     C
C40   0.16416557 0.07839788 0.9029397     C
C41   0.11319988 0.1260374 0.85468996     C
C42   0.21462858 0.14574748 0.74591637     C
C43   0.05417386 0.20707881 0.6947732     C
C44   0.22581768 0.039096564 0.8578678     C
C45   0.13954583 0.11980924 0.77613604     C
Cl46  0.26834738 0.9400407 0.7788557    Cl
Cl47  0.15356097 0.91777563 0.90195644    Cl
Cl48  0.16904326 0.03301152 0.6847199    Cl
Cl49  0.054258008 0.010701476 0.80779743    Cl
O50   0.4227567 0.89882517 0.9542991     O
O51   0.3405178 0.907981 0.0542655     O
O52   0.029629923 0.267351 0.58174825     O
O53   0.94745857 0.2764992 0.6816326     O
Zn54  0.49421775 0.81982404 0.014533913    Zn
Zn55  0.36949122 0.86253214 0.11989741    Zn
C56   0.9618612 0.18433145 0.5593249     C
C57   0.90277004 0.98903364 0.58259475     C
C58   0.92528194 0.057030953 0.5741388     C
C59   0.94264436 0.11523547 0.5664299     C
O60   0.93948203 0.9293004 0.6095043     O
O61   0.9389184 0.21058059 0.6131995     O
O62   0.8467143 0.98912627 0.56111187     O
O63   0.0029287338 0.21812953 0.50052387     O
H64   0.7722569 0.48878995 0.55090237     H
H65   0.59106785 0.69279665 0.087608226     H
H66   0.61476094 0.57196456 0.3795378     H
H67   0.7485743 0.6096339 0.25896448     H
H68   0.68184733 0.6208545 0.15349118     H
H69   0.68147594 0.56072694 0.48501855     H
C70   0.48270145 0.78464687 0.1315121     C
C71   0.8806353 0.39695674 0.506991     C
C72   0.5379454 0.7448762 0.17091595     C
C73   0.82538974 0.43672225 0.46758643     C
C74   0.5393867 0.7534747 0.23829938     C
C75   0.8239553 0.42813495 0.40019965     C
C76   0.5919165 0.71258485 0.27567634     C
C77   0.77142775 0.4690204 0.36281696     C
C78   0.6420976 0.66298646 0.24576917     C
C79   0.72124135 0.51861286 0.39272818     C
C80   0.64268565 0.65816116 0.17712091     C
C81   0.72064286 0.52342623 0.4613848     C
C82   0.5909268 0.6988303 0.1398834     C
C83   0.7724032 0.4827622 0.498623     C
C84   0.69289005 0.6132192 0.28606454     C
C85   0.67044526 0.5683793 0.35243785     C
Cl86  0.47827137 0.81773955 0.27471277    Cl
Cl87  0.88508123 0.363882 0.36377802    Cl
Cl88  0.7667926 0.45539355 0.28050932    Cl
Cl89  0.5965569 0.72621757 0.35797986    Cl
O90   0.49842718 0.81036997 0.062172756     O
O91   0.8649095 0.37123373 0.5763305     O
O92   0.4189093 0.79364085 0.16647966     O
O93   0.9444275 0.38796276 0.47202358     O
C94   0.8760588 0.68161124 0.52818966     C
C95   0.96131486 0.47932306 0.6134986     C
C96   0.9025904 0.6079118 0.5534819     C
C97   0.92878723 0.54817796 0.5795091     C
O98   0.011825204 0.4518906 0.57018435     O
O99   0.9731671 0.47351566 0.67616516     O
O100  0.89573914 0.7158645 0.46185002     O
O101  0.8481398 0.7139238 0.575347     O
loop_
_geom_bond_atom_site_label_1
_geom_bond_atom_site_label_2
_geom_bond_distance
_geom_bond_site_symmetry_2
_ccdc_geom_bond_type
Zn0   Zn1    2.97960       .     S
Zn0   O53    1.69370       .     S
Zn0   O91    1.90708       .     S
Zn0   O93    2.98640       .     S
Zn0   O99    2.86687       .     D
Zn1   Zn0    2.97960       .     S
Zn1   O52    2.56143   1_655     S
Zn1   O61    2.35433       .     T
Zn1   O63    2.05844   1_655     S
Zn1   O98    4.07450   1_655     T
Zn2   Zn3    2.96638       .     S
Zn2   O22    3.85838   1_565     D
Zn2   O23    1.80153       .     S
Zn2   O60    1.73706       .     D
Zn2   O62    1.74125       .     S
Zn3   Zn2    2.96638       .     S
Zn3   O10    4.29272   1_655     T
Zn3   O11    2.65354   1_655     S
Zn3   O100   3.53113       .     T
Zn3   O101   3.23183       .     S
C4    C6     1.20089       .     D
C4    C8     1.42717       .     S
C5    C6     1.40310       .     D
C5    C7     1.20027       .     S
C6    C4     1.20089       .     S
C6    C5     1.40310       .     T
C7    C5     1.20027       .     S
C7    C9     1.42592       .     T
C8    C4     1.42717       .     S
C8    O12    1.29498       .     D
C8    O13    1.28752       .     S
C9    C7     1.42592       .     D
C9    O10    1.27247       .     S
C9    O11    1.26263       .     S
O10   Zn3    4.29272   1_455     T
O10   C9     1.27247       .     S
O11   Zn3    2.65354   1_455     T
O11   C9     1.26263       .     S
O12   C8     1.29498       .     D
O12   Zn55   2.23167       .     S
O13   C8     1.28752       .     S
O13   Zn55   3.92298       .     S
C14   C16    1.20089       .     S
C14   C18    1.42716       .     S
C15   C16    1.40310       .     S
C15   C17    1.20027       .     S
C16   C14    1.20089       .     S
C16   C15    1.40310       .     S
C17   C15    1.20027       .     S
C17   C19    1.42592       .     S
C18   C14    1.42716       .     S
C18   O22    1.29498   1_565     S
C18   O23    1.28752       .     S
C19   C17    1.42592       .     S
C19   O20    1.27247   1_556     D
C19   O21    1.26263       .     S
O20   C19    1.27247   1_554     S
O20   Zn54   2.23687       .     T
O21   C19    1.26263       .     D
O21   Zn54   4.34779   1_556     S
O22   Zn2    3.85838   1_545     S
O22   C18    1.29498   1_545     S
O23   Zn2    1.80153       .     T
O23   C18    1.28752       .     S
H24   C42    1.11396       .     S
H25   C41    1.11393       .     S
H26   C39    1.11397       .     S
H27   C40    1.11386       .     S
H28   C40    1.11210       .     S
H29   C39    1.11193       .     S
H30   C41    1.11192       .     S
H31   C42    1.11206       .     S
C32   C33    1.59640   1_545     S
C32   C45    1.57264       .     S
C32   Cl48   1.80712       .     S
C32   Cl49   1.80715       .     S
C33   C32    1.59640   1_565     S
C33   C44    1.57269   1_565     S
C33   Cl46   1.80742       .     S
C33   Cl47   1.80717       .     S
C34   C43    1.18482       .     S
C34   C45    1.44310       .     S
C35   C36    1.18476       .     S
C35   C44    1.44281   1_565     S
C36   C35    1.18476       .     S
C36   C37    1.39772       .     D
C37   C36    1.39772       .     S
C37   O50    1.28031       .     S
C37   O51    1.28074   1_556     T
C38   C43    1.39821       .     D
C38   O52    1.27982       .     S
C38   O53    1.28005   1_455     S
C39   H26    1.11397       .     S
C39   H29    1.11193       .     T
C39   C42    1.53767       .     S
C39   C44    1.55087       .     S
C40   H27    1.11386       .     S
C40   H28    1.11210       .     S
C40   C41    1.53831       .     S
C40   C44    1.55077       .     S
C41   H25    1.11393       .     S
C41   H30    1.11192       .     S
C41   C40    1.53831       .     S
C41   C45    1.55102       .     S
C42   H24    1.11396       .     D
C42   H31    1.11206       .     S
C42   C39    1.53767       .     S
C42   C45    1.55093       .     D
C43   C34    1.18482       .     T
C43   C38    1.39821       .     S
C44   C33    1.57269   1_545     S
C44   C35    1.44281   1_545     D
C44   C39    1.55087       .     S
C44   C40    1.55077       .     S
C45   C32    1.57264       .     D
C45   C34    1.44310       .     T
C45   C41    1.55102       .     S
C45   C42    1.55093       .     S
Cl46  C33    1.80742       .     D
Cl47  C33    1.80717       .     S
Cl48  C32    1.80712       .     S
Cl49  C32    1.80715       .     S
O50   C37    1.28031       .     A
O50   Zn54   2.15995   1_556     A
O51   C37    1.28074   1_554     S
O51   Zn55   1.50427       .     A
O52   Zn1    2.56143   1_455     A
O52   C38    1.27982       .     S
O53   Zn0    1.69370       .     A
O53   C38    1.28005   1_655     A
Zn54  O20    2.23687       .     S
Zn54  O21    4.34779   1_554     S
Zn54  O50    2.15995   1_554     S
Zn54  Zn55   2.96889       .     D
Zn54  O90    0.92751       .     S
Zn55  O12    2.23167       .     S
Zn55  O13    3.92298       .     S
Zn55  O51    1.50427       .     A
Zn55  Zn54   2.96889       .     A
Zn55  O92    1.67022       .     S
C56   C59    1.42102       .     A
C56   O61    1.27995       .     A
C56   O63    1.28630   1_655     A
C57   C58    1.42102   1_565     S
C57   O60    1.28628       .     S
C57   O62    1.27996       .     A
C58   C57    1.42102   1_545     S
C58   C59    1.19751       .     D
C59   C56    1.42102       .     S
C59   C58    1.19751       .     D
O60   Zn2    1.73706       .     S
O60   C57    1.28628       .     S
O61   Zn1    2.35433       .     S
O61   C56    1.27995       .     A
O62   Zn2    1.74125       .     A
O62   C57    1.27996       .     S
O63   Zn1    2.05844   1_455     A
O63   C56    1.28630   1_455     A
H64   C83    1.08358       .     S
H65   C82    1.08358       .     A
H66   C85    1.08691       .     A
H67   C84    1.08691       .     S
H68   C80    1.08387       .     S
H69   C81    1.08388       .     S
C70   C72    1.46037       .     D
C70   O90    1.27815       .     S
C70   O92    1.27681       .     S
C71   C73    1.46038       .     S
C71   O91    1.27815       .     A
C71   O93    1.27681       .     A
C72   C70    1.46037       .     S
C72   C74    1.41246       .     A
C72   C82    1.39995       .     A
C73   C71    1.46038       .     A
C73   C75    1.41239       .     S
C73   C83    1.39996       .     S
C74   C72    1.41246       .     A
C74   C76    1.40216       .     S
C74   Cl86   1.77013       .     D
C75   C73    1.41239       .     S
C75   C77    1.40216       .     D
C75   Cl87   1.77013       .     S
C76   C74    1.40216       .     S
C76   C78    1.40964       .     T
C76   Cl89   1.76979       .     S
C77   C75    1.40216       .     D
C77   C79    1.40964       .     S
C77   Cl88   1.76979       .     D
C78   C76    1.40964       .     S
C78   C80    1.39645       .     S
C78   C84    1.46167       .     T
C79   C77    1.40964       .     S
C79   C81    1.39647       .     D
C79   C85    1.46167       .     S
C80   H68    1.08387       .     S
C80   C78    1.39645       .     S
C80   C82    1.38790       .     S
C81   H69    1.08388       .     S
C81   C79    1.39647       .     S
C81   C83    1.38791       .     S
C82   H65    1.08358       .     S
C82   C72    1.39995       .     S
C82   C80    1.38790       .     S
C83   H64    1.08358       .     S
C83   C73    1.39996       .     S
C83   C81    1.38791       .     S
C84   H67    1.08691       .     S
C84   C78    1.46167       .     S
C84   C85    1.33748       .     S
C85   H66    1.08691       .     S
C85   C79    1.46167       .     S
C85   C84    1.33748       .     S
Cl86  C74    1.77013       .     S
Cl87  C75    1.77013       .     S
Cl88  C77    1.76979       .     S
Cl89  C76    1.76979       .     S
O90   Zn54   0.92751       .     S
O90   C70    1.27815       .     S
O91   Zn0    1.90708       .     S
O91   C71    1.27815       .     S
O92   Zn55   1.67022       .     S
O92   C70    1.27681       .     S
O93   Zn0    2.98640       .     S
O93   C71    1.27681       .     S
C94   C96    1.41001       .     S
C94   O100   1.26171       .     S
C94   O101   1.25388       .     S
C95   C97    1.41164       .     S
C95   O98    1.29480   1_655     S
C95   O99    1.29256       .     S
C96   C94    1.41001       .     S
C96   C97    1.19168       .     S
C97   C95    1.41164       .     S
C97   C96    1.19168       .     S
O98   Zn1    4.07450   1_455     S
O98   C95    1.29480   1_455     S
O99   Zn0    2.86687       .     S
O99   C95    1.29256       .     S
O100  Zn3    3.53113       .     S
O100  C94    1.26171       .     S
O101  Zn3    3.23183       .     S
O101  C94    1.25388       .     S
