# generated using pymatgen
data_Zn4H8C30N2Cl2O17
_symmetry_space_group_name_H-M   'P 1'
_cell_length_a   18.26810000
_cell_length_b   18.23072000
_cell_length_c   23.78402000
_cell_angle_alpha   104.29936000
_cell_angle_beta   104.79630000
_cell_angle_gamma   100.79420000
_symmetry_Int_Tables_number   1
_chemical_formula_structural   Zn4H8C30N2Cl2O17
_chemical_formula_sum   'Zn8 H16 C60 N4 Cl4 O34'
_cell_volume   7151.24029304
_cell_formula_units_Z   2
loop_
 _symmetry_equiv_pos_site_id
 _symmetry_equiv_pos_as_xyz
  1  'x, y, z'
loop_
 _atom_site_type_symbol
 _atom_site_label
 _atom_site_symmetry_multiplicity
 _atom_site_fract_x
 _atom_site_fract_y
 _atom_site_fract_z
 _atom_site_occupancy
  Zn  Zn0  1  0.49994320  0.51592493  0.05786293  1
  Zn  Zn1  1  0.50183845  0.64844690  0.99372460  1
  Zn  Zn2  1  0.59046170  0.69355640  0.13538502  1
  Zn  Zn3  1  0.65767080  0.59706396  0.04022756  1
  Zn  Zn4  1  0.11193434  0.07278432  0.11994807  1
  Zn  Zn5  1  0.98286164  0.16146020  0.08279005  1
  Zn  Zn6  1  0.13871667  0.19535464  0.04868332  1
  Zn  Zn7  1  0.00973325  0.03112614  0.98183460  1
  H  H8  1  0.53906757  0.52865016  0.46033314  1
  H  H9  1  0.08631126  0.19962452  0.65421790  1
  H  H10  1  0.32061260  0.39777038  0.31891190  1
  H  H11  1  0.30554590  0.32875330  0.79536104  1
  H  H12  1  0.25669524  0.45825887  0.51280236  1
  H  H13  1  0.36915800  0.26865387  0.60147230  1
  H  H14  1  0.20497596  0.41036293  0.58685430  1
  H  H15  1  0.42091954  0.31658542  0.52743375  1
  H  H16  1  0.83028660  0.96000224  0.81913200  1
  H  H17  1  0.79467916  0.77431834  0.29730630  1
  H  H18  1  0.05959916  0.98088120  0.79766080  1
  H  H19  1  0.56520680  0.75136876  0.31875060  1
  H  H20  1  0.88879794  0.00598395  0.60851190  1
  H  H21  1  0.73616130  0.72681080  0.50789850  1
  H  H22  1  0.82998900  0.95612150  0.49646340  1
  H  H23  1  0.79494120  0.77668460  0.61996820  1
  C  C24  1  0.16062187  0.23644552  0.77541935  1
  C  C25  1  0.46510988  0.49109122  0.33903164  1
  C  C26  1  0.48006970  0.49070418  0.44601265  1
  C  C27  1  0.14551872  0.23710799  0.66846840  1
  C  C28  1  0.45060107  0.46851426  0.48997107  1
  C  C29  1  0.17506388  0.25911450  0.62449380  1
  C  C30  1  0.37331480  0.41922674  0.47116295  1
  C  C31  1  0.25259880  0.30780363  0.64319000  1
  C  C32  1  0.32693040  0.39415327  0.40916430  1
  C  C33  1  0.29916640  0.33250484  0.70512230  1
  C  C34  1  0.35711634  0.41776854  0.36638975  1
  C  C35  1  0.26891103  0.30908420  0.74793820  1
  C  C36  1  0.43371394  0.46595803  0.38436240  1
  C  C37  1  0.19205886  0.26145223  0.73005990  1
  C  C38  1  0.28123838  0.41679840  0.53198600  1
  C  C39  1  0.34462512  0.31013060  0.58229005  1
  C  C40  1  0.25204850  0.38977733  0.57395124  1
  C  C41  1  0.37383044  0.33716986  0.54033816  1
  C  C42  1  0.28371054  0.33643420  0.59920790  1
  C  C43  1  0.34217447  0.39052585  0.51508890  1
  C  C44  1  0.78831950  0.46275030  0.05921618  1
  C  C45  1  0.83861350  0.26803610  0.05664865  1
  C  C46  1  0.76962830  0.53561230  0.06020719  1
  C  C47  1  0.85729736  0.19520230  0.05565800  1
  C  C48  1  0.80421627  0.40115720  0.05840323  1
  C  C49  1  0.82271980  0.32961650  0.05746913  1
  C  C50  1  0.37077610  0.48298642  0.07424060  1
  C  C51  1  0.34124234  0.39916968  0.05500477  1
  C  C52  1  0.30925107  0.32972960  0.03593600  1
  C  C53  1  0.26734948  0.24851412  0.01790173  1
  C  C54  1  0.91034280  0.95324665  0.08377608  1
  C  C55  1  0.71331840  0.77515500  0.02907656  1
  C  C56  1  0.78262955  0.83781550  0.04835619  1
  C  C57  1  0.84107210  0.89055115  0.06454829  1
  C  C58  1  0.37184200  0.79468480  0.03685009  1
  C  C59  1  0.20114726  0.98955550  0.09171218  1
  C  C60  1  0.41847664  0.74144524  0.02186154  1
  C  C61  1  0.24777713  0.93631650  0.07673138  1
  C  C62  1  0.28687406  0.89168704  0.06415920  1
  C  C63  1  0.33274984  0.83931370  0.04941447  1
  C  C64  1  0.64006410  0.73384460  0.23333107  1
  C  C65  1  0.98480640  0.99958575  0.88309145  1
  C  C66  1  0.86718947  0.95465510  0.79002140  1
  C  C67  1  0.75772900  0.77911550  0.32640818  1
  C  C68  1  0.83220310  0.93084640  0.72644883  1
  C  C69  1  0.79268730  0.80270535  0.38996340  1
  C  C70  1  0.88062540  0.92428940  0.68851876  1
  C  C71  1  0.74423546  0.80856920  0.42789167  1
  C  C72  1  0.96277803  0.94265234  0.71489066  1
  C  C73  1  0.66204906  0.78976020  0.40152910  1
  C  C74  1  0.99633270  0.96716017  0.77823580  1
  C  C75  1  0.62849400  0.76547060  0.33818537  1
  C  C76  1  0.94899050  0.97321760  0.81620455  1
  C  C77  1  0.67588365  0.76007340  0.30021670  1
  C  C78  1  0.85565567  0.94503313  0.58668000  1
  C  C79  1  0.76929903  0.78777283  0.52974015  1
  C  C80  1  0.82228720  0.91684280  0.52328503  1
  C  C81  1  0.80264840  0.81596970  0.59313690  1
  C  C82  1  0.77901250  0.83818185  0.49469880  1
  C  C83  1  0.84591370  0.89463824  0.62172395  1
  N  N84  1  0.49943388  0.49714884  0.55311010  1
  N  N85  1  0.12606830  0.23091283  0.56143415  1
  N  N86  1  0.74809040  0.91454690  0.70152250  1
  N  N87  1  0.87681590  0.81949854  0.41490070  1
  Cl  Cl88  1  0.23136553  0.33060014  0.38292855  1
  Cl  Cl89  1  0.39504534  0.39541262  0.73125714  1
  Cl  Cl90  1  0.02556956  0.93291500  0.66979400  1
  Cl  Cl91  1  0.59918594  0.79872096  0.44662717  1
  O  O92  1  0.08959042  0.19249766  0.75805150  1
  O  O93  1  0.53613500  0.53505427  0.35640228  1
  O  O94  1  0.20460868  0.25809622  0.83184130  1
  O  O95  1  0.42111670  0.46945570  0.28261253  1
  O  O96  1  0.46899822  0.51469410  0.59689444  1
  O  O97  1  0.57557690  0.51410200  0.56687410  1
  O  O98  1  0.04999008  0.21526708  0.54782660  1
  O  O99  1  0.15616725  0.21234503  0.51756126  1
  O  O100  1  0.69807124  0.53699490  0.04189206  1
  O  O101  1  0.82455814  0.59911674  0.07940956  1
  O  O102  1  0.80239470  0.13172871  0.03647282  1
  O  O103  1  0.92881920  0.19381990  0.07397181  1
  O  O104  1  0.56248750  0.61374503  0.05680273  1
  O  O105  1  0.20325537  0.22036855  0.97172110  1
  O  O106  1  0.29026620  0.21187586  0.05591148  1
  O  O107  1  0.42133096  0.51866940  0.13012575  1
  O  O108  1  0.31599322  0.51460445  0.05323136  1
  O  O109  1  0.97457474  0.93950737  0.08094510  1
  O  O110  1  0.71551114  0.70520720  0.00892864  1
  O  O111  1  0.64908385  0.78890060  0.03187634  1
  O  O112  1  0.90814745  0.02320075  0.10389285  1
  O  O113  1  0.06080981  0.11517920  0.05831314  1
  O  O114  1  0.22599870  0.06271195  0.09784906  1
  O  O115  1  0.13485816  0.96370566  0.09889349  1
  O  O116  1  0.46887204  0.72886026  0.06332438  1
  O  O117  1  0.41027010  0.70586616  0.96683913  1
  O  O118  1  0.68474776  0.72922860  0.19905615  1
  O  O119  1  0.94012350  0.00421917  0.91736645  1
  O  O120  1  0.56447690  0.71508250  0.20973990  1
  O  O121  1  0.06039417  0.01836526  0.90668260  1
  O  O122  1  0.71648407  0.93191420  0.65262180  1
  O  O123  1  0.70312140  0.89033730  0.73144174  1
  O  O124  1  0.92168695  0.84495980  0.38535870  1
  O  O125  1  0.90858320  0.80127860  0.46333800  1
