# generated using pymatgen
data_Zn3H72C86(NO9)2
_symmetry_space_group_name_H-M   'P 1'
_cell_length_a   22.02191000
_cell_length_b   22.13072000
_cell_length_c   26.72202000
_cell_angle_alpha   110.72733000
_cell_angle_beta   109.80682000
_cell_angle_gamma   96.03505000
_symmetry_Int_Tables_number   1
_chemical_formula_structural   Zn3H72C86(NO9)2
_chemical_formula_sum   'Zn6 H144 C172 N4 O36'
_cell_volume   11078.57687332
_cell_formula_units_Z   2
loop_
 _symmetry_equiv_pos_site_id
 _symmetry_equiv_pos_as_xyz
  1  'x, y, z'
loop_
 _atom_site_type_symbol
 _atom_site_label
 _atom_site_symmetry_multiplicity
 _atom_site_fract_x
 _atom_site_fract_y
 _atom_site_fract_z
 _atom_site_occupancy
  Zn  Zn0  1  0.60533774  0.51410230  0.52532710  1
  Zn  Zn1  1  0.66287446  0.62258095  0.49562642  1
  Zn  Zn2  1  0.16881248  0.07995997  0.57698840  1
  Zn  Zn3  1  0.10198008  0.05807998  0.44463688  1
  Zn  Zn4  1  0.68839705  0.03413059  0.52164160  1
  Zn  Zn5  1  0.58076245  0.10387713  0.50243795  1
  H  H6  1  0.89660025  0.22237533  0.47686360  1
  H  H7  1  0.83095646  0.15673130  0.41346776  1
  H  H8  1  0.81519480  0.23616801  0.44755992  1
  H  H9  1  0.76668100  0.16274272  0.48291110  1
  H  H10  1  0.83945620  0.22028162  0.53849953  1
  H  H11  1  0.84334340  0.01778472  0.34863552  1
  H  H12  1  0.93234074  0.02946575  0.38193630  1
  H  H13  1  0.88065076  0.95330507  0.31901085  1
  H  H14  1  0.91459054  0.93389595  0.40662990  1
  H  H15  1  0.82807934  0.92003160  0.37753978  1
  H  H16  1  0.90115180  0.92196730  0.53585510  1
  H  H17  1  0.89505327  0.88296490  0.46218598  1
  H  H18  1  0.96311030  0.87988555  0.52083510  1
  H  H19  1  0.99969405  0.96778450  0.48849374  1
  H  H20  1  0.01365209  0.99550400  0.56250817  1
  H  H21  1  0.92977180  0.19353761  0.68312080  1
  H  H22  1  0.85299560  0.14000185  0.62369275  1
  H  H23  1  0.89473930  0.29429528  0.67499610  1
  H  H24  1  0.81602320  0.24155796  0.61685800  1
  H  H25  1  0.78918284  0.19830464  0.68272394  1
  H  H26  1  0.80659410  0.28828987  0.71201897  1
  H  H27  1  0.86872923  0.24935475  0.74201226  1
  H  H28  1  0.76805990  0.65825415  0.92758200  1
  H  H29  1  0.00377607  0.97988990  0.09556498  1
  H  H30  1  0.97735980  0.94695780  0.99204700  1
  H  H31  1  0.79449654  0.69118030  0.03110249  1
  H  H32  1  0.89806527  0.97090924  0.23174785  1
  H  H33  1  0.87364730  0.66714686  0.79137030  1
  H  H34  1  0.98490006  0.80569380  0.22668369  1
  H  H35  1  0.78707940  0.83253220  0.79649454  1
  H  H36  1  0.81625414  0.98827830  0.29203680  1
  H  H37  1  0.78978276  0.09111226  0.34554905  1
  H  H38  1  0.88000196  0.18582654  0.42946848  1
  H  H39  1  0.99739504  0.17807531  0.45933172  1
  H  H40  1  0.02497947  0.07601023  0.40599513  1
  H  H41  1  0.95540750  0.64951473  0.73120730  1
  H  H42  1  0.98170626  0.54651016  0.67777180  1
  H  H43  1  0.89141625  0.45192707  0.59379494  1
  H  H44  1  0.77411950  0.45997286  0.56377550  1
  H  H45  1  0.74669760  0.56221145  0.61703414  1
  H  H46  1  0.93688780  0.79891425  0.36149720  1
  H  H47  1  0.98995924  0.72860324  0.40801853  1
  H  H48  1  0.10037446  0.71215695  0.41054700  1
  H  H49  1  0.15778005  0.76598330  0.36592716  1
  H  H50  1  0.10586119  0.83710830  0.31975573  1
  H  H51  1  0.83507640  0.83908725  0.66155183  1
  H  H52  1  0.78222970  0.90964484  0.61521480  1
  H  H53  1  0.67201340  0.92652893  0.61296990  1
  H  H54  1  0.61457515  0.87286580  0.65764380  1
  H  H55  1  0.66625360  0.80148610  0.70362720  1
  H  H56  1  0.53186800  0.92928540  0.61983790  1
  H  H57  1  0.58870450  0.87806760  0.62495420  1
  H  H58  1  0.44008930  0.83099836  0.53928480  1
  H  H59  1  0.49760443  0.77861726  0.54306424  1
  H  H60  1  0.51549566  0.80282660  0.64593214  1
  H  H61  1  0.42827964  0.76882920  0.59774816  1
  H  H62  1  0.45938510  0.85713035  0.64384740  1
  H  H63  1  0.52053330  0.87255704  0.41026047  1
  H  H64  1  0.53025920  0.79467830  0.36641732  1
  H  H65  1  0.44793220  0.80606765  0.35698056  1
  H  H66  1  0.47058442  0.73898095  0.41370207  1
  H  H67  1  0.46952122  0.81886530  0.45790710  1
  H  H68  1  0.71019320  0.70225084  0.58997136  1
  H  H69  1  0.63509977  0.64988434  0.52812886  1
  H  H70  1  0.71239024  0.62582844  0.53699195  1
  H  H71  1  0.68948096  0.66939980  0.46162350  1
  H  H72  1  0.75934345  0.72278017  0.52344300  1
  H  H73  1  0.83295340  0.81753975  0.55157113  1
  H  H74  1  0.81865510  0.89926480  0.56819373  1
  H  H75  1  0.87756540  0.88208413  0.62394480  1
  H  H76  1  0.78179353  0.88049173  0.64722420  1
  H  H77  1  0.78193580  0.79772470  0.61505735  1
  H  H78  1  0.26861950  0.41164040  0.96807020  1
  H  H79  1  0.49853456  0.22173688  0.05016843  1
  H  H80  1  0.46808330  0.19998714  0.94785190  1
  H  H81  1  0.29905620  0.43336973  0.07038113  1
  H  H82  1  0.54891807  0.40602820  0.24379815  1
  H  H83  1  0.21820077  0.22747357  0.77446127  1
  H  H84  1  0.34624144  0.31875060  0.20465213  1
  H  H85  1  0.42093330  0.31448174  0.81356007  1
  H  H86  1  0.60787946  0.52441424  0.34372613  1
  H  H87  1  0.72644510  0.57425300  0.41199577  1
  H  H88  1  0.78810155  0.51315400  0.46540278  1
  H  H89  1  0.73119694  0.40115610  0.44964537  1
  H  H90  1  0.61291700  0.35015196  0.38109577  1
  H  H91  1  0.15901269  0.10922194  0.67469670  1
  H  H92  1  0.04036155  0.05961958  0.60658544  1
  H  H93  1  0.97886103  0.12075883  0.55314280  1
  H  H94  1  0.03600063  0.23255590  0.56868420  1
  H  H95  1  0.15437348  0.28333390  0.63707820  1
  H  H96  1  0.37314230  0.43952549  0.37281410  1
  H  H97  1  0.28422147  0.40949765  0.40296152  1
  H  H98  1  0.21927800  0.29175930  0.36018768  1
  H  H99  1  0.24313230  0.20366639  0.28655222  1
  H  H100  1  0.33238200  0.23257108  0.25629923  1
  H  H101  1  0.39380458  0.19367118  0.64526570  1
  H  H102  1  0.48288740  0.22353362  0.61522400  1
  H  H103  1  0.54820280  0.34117392  0.65822050  1
  H  H104  1  0.52452964  0.42932004  0.73192640  1
  H  H105  1  0.43511665  0.40059614  0.76207630  1
  H  H106  1  0.70845276  0.20208898  0.61519950  1
  H  H107  1  0.65132190  0.25302708  0.61025420  1
  H  H108  1  0.80491050  0.30195048  0.65902640  1
  H  H109  1  0.74741130  0.35413197  0.65308300  1
  H  H110  1  0.70672655  0.32380030  0.71933710  1
  H  H111  1  0.79582390  0.35861020  0.75335026  1
  H  H112  1  0.76266444  0.26964948  0.72478930  1
  H  H113  1  0.76787450  0.27163935  0.46758944  1
  H  H114  1  0.76407766  0.35106143  0.46519542  1
  H  H115  1  0.84239620  0.33890057  0.50531960  1
  H  H116  1  0.80196875  0.40118440  0.57786363  1
  H  H117  1  0.79793860  0.31994778  0.57370020  1
  H  H118  1  0.53570940  0.42997682  0.59553033  1
  H  H119  1  0.61580426  0.48394245  0.61947995  1
  H  H120  1  0.54122220  0.50844270  0.58921140  1
  H  H121  1  0.58479560  0.47044364  0.51325685  1
  H  H122  1  0.50955254  0.41538210  0.49220932  1
  H  H123  1  0.44277010  0.32217115  0.41576776  1
  H  H124  1  0.45799372  0.24074052  0.39484632  1
  H  H125  1  0.38871548  0.25495586  0.41475192  1
  H  H126  1  0.46989733  0.25301304  0.50014010  1
  H  H127  1  0.47146220  0.33623573  0.51722896  1
  H  H128  1  0.24765140  0.00688038  0.58574086  1
  H  H129  1  0.31446680  0.07637791  0.60823810  1
  H  H130  1  0.32657215  0.93384630  0.59379480  1
  H  H131  1  0.39474416  0.00359321  0.61544130  1
  H  H132  1  0.37492228  0.06733855  0.70334940  1
  H  H133  1  0.38864803  0.98782897  0.70137745  1
  H  H134  1  0.30511332  0.99879380  0.68179107  1
  H  H135  1  0.30176786  0.89946496  0.40396073  1
  H  H136  1  0.38438258  0.91615240  0.40652585  1
  H  H137  1  0.35262957  0.84278580  0.41390300  1
  H  H138  1  0.42810080  0.92416500  0.51243390  1
  H  H139  1  0.34550273  0.91336820  0.50627110  1
  H  H140  1  0.52558017  0.22775117  0.65190030  1
  H  H141  1  0.56113416  0.15767841  0.64400613  1
  H  H142  1  0.60478616  0.23262423  0.64604760  1
  H  H143  1  0.55344033  0.15064144  0.54350144  1
  H  H144  1  0.51557350  0.21626343  0.55228400  1
  H  H145  1  0.43544444  0.24593112  0.49627587  1
  H  H146  1  0.34749445  0.20784539  0.46352264  1
  H  H147  1  0.38001567  0.29356137  0.51650390  1
  H  H148  1  0.35876176  0.23530799  0.57153840  1
  H  H149  1  0.44423282  0.25386712  0.59274060  1
  C  C150  1  0.76545703  0.02797903  0.40804526  1
  C  C151  1  0.87825900  0.01275655  0.45788690  1
  C  C152  1  0.93202030  0.02727147  0.51158850  1
  C  C153  1  0.94499540  0.08804982  0.56011486  1
  C  C154  1  0.90453100  0.13251457  0.55683580  1
  C  C155  1  0.85128270  0.11820309  0.50380950  1
  C  C156  1  0.83231670  0.05337561  0.45711347  1
  C  C157  1  0.00679982  0.11133143  0.61192830  1
  C  C158  1  0.82142770  0.17547058  0.49677053  1
  C  C159  1  0.84206980  0.19870260  0.45594874  1
  C  C160  1  0.87478757  0.96031800  0.40037218  1
  C  C161  1  0.88315890  0.99235020  0.36012822  1
  C  C162  1  0.97338910  0.97701454  0.51821804  1
  C  C163  1  0.93035760  0.91157710  0.50847990  1
  C  C164  1  0.89059764  0.18845790  0.64160496  1
  C  C165  1  0.85741010  0.24584162  0.65672624  1
  C  C166  1  0.82877606  0.24516850  0.70118076  1
  C  C167  1  0.98519270  0.79220873  0.36237740  1
  C  C168  1  0.01502192  0.75225060  0.38863787  1
  C  C169  1  0.07726908  0.74295990  0.39005154  1
  C  C170  1  0.10963678  0.77333980  0.36492020  1
  C  C171  1  0.92276440  0.94220346  0.25402805  1
  C  C172  1  0.84900480  0.69589810  0.76910400  1
  C  C173  1  0.89226710  0.83173126  0.90263045  1
  C  C174  1  0.87958914  0.80640690  0.12051905  1
  C  C175  1  0.81813870  0.72985125  0.87984014  1
  C  C176  1  0.95369726  0.90829290  0.14330691  1
  C  C177  1  0.83284690  0.74786020  0.93965030  1
  C  C178  1  0.93899920  0.89028084  0.08349788  1
  C  C179  1  0.97215915  0.84930044  0.25124723  1
  C  C180  1  0.90820580  0.85191035  0.96287240  1
  C  C181  1  0.86364020  0.78623070  0.06027577  1
  C  C182  1  0.87821347  0.80946390  0.98137367  1
  C  C183  1  0.79975814  0.78887326  0.77189523  1
  C  C184  1  0.89363265  0.82867720  0.04177461  1
  C  C185  1  0.80316544  0.70591760  0.95866364  1
  C  C186  1  0.96867060  0.93222654  0.06448350  1
  C  C187  1  0.95348660  0.91329074  0.00496561  1
  C  C188  1  0.81836960  0.72484750  0.01818397  1
  C  C189  1  0.92247987  0.02438152  0.34544870  1
  C  C190  1  0.85617930  0.02951789  0.32832400  1
  C  C191  1  0.84100410  0.08759141  0.35861410  1
  C  C192  1  0.89186364  0.14101315  0.40591970  1
  C  C193  1  0.95804990  0.13663101  0.42276427  1
  C  C194  1  0.97345680  0.07872164  0.39254856  1
  C  C195  1  0.84920720  0.61364100  0.67768230  1
  C  C196  1  0.91545190  0.60834130  0.69488204  1
  C  C197  1  0.93052506  0.55016210  0.66462560  1
  C  C198  1  0.87962510  0.49680930  0.61728070  1
  C  C199  1  0.81350000  0.50136596  0.60036300  1
  C  C200  1  0.79818480  0.55938375  0.63054380  1
  C  C201  1  0.01786280  0.82371750  0.33774480  1
  C  C202  1  0.08003283  0.81343420  0.33868910  1
  C  C203  1  0.75415355  0.81455630  0.68546500  1
  C  C204  1  0.78684180  0.84596795  0.66078350  1
  C  C205  1  0.75714296  0.88606274  0.63461960  1
  C  C206  1  0.69500330  0.89560086  0.63335190  1
  C  C207  1  0.66262746  0.86531514  0.65853333  1
  C  C208  1  0.69209564  0.82507310  0.68466590  1
  C  C209  1  0.93838260  0.96231140  0.31402925  1
  C  C210  1  0.83338130  0.67577930  0.70910070  1
  C  C211  1  0.98709240  0.86726150  0.31092370  1
  C  C212  1  0.78483590  0.77093010  0.71224284  1
  C  C213  1  0.97059900  0.92458240  0.34327210  1
  C  C214  1  0.80124700  0.71355873  0.67987610  1
  C  C215  1  0.78504000  0.69336370  0.61638904  1
  C  C216  1  0.93975500  0.88614880  0.22244823  1
  C  C217  1  0.83209103  0.75199234  0.80070007  1
  C  C218  1  0.98680604  0.94477750  0.40675917  1
  C  C219  1  0.70035280  0.94661623  0.60814315  1
  C  C220  1  0.57288960  0.68913390  0.41815540  1
  C  C221  1  0.59784910  0.85845320  0.53180593  1
  C  C222  1  0.56979650  0.80188555  0.47867787  1
  C  C223  1  0.60642400  0.75351060  0.46860617  1
  C  C224  1  0.67123060  0.76321070  0.51140590  1
  C  C225  1  0.70378580  0.82716256  0.55857890  1
  C  C226  1  0.66741204  0.87655850  0.56558067  1
  C  C227  1  0.54431230  0.88471910  0.59378620  1
  C  C228  1  0.48556897  0.82378520  0.56859250  1
  C  C229  1  0.47147217  0.81265360  0.61721563  1
  C  C230  1  0.49909140  0.79209550  0.43554828  1
  C  C231  1  0.49975488  0.81777465  0.38959453  1
  C  C232  1  0.70467424  0.70552343  0.50751853  1
  C  C233  1  0.68954885  0.66885245  0.54269870  1
  C  C234  1  0.77418190  0.84102150  0.60444300  1
  C  C235  1  0.82870185  0.86112964  0.58565420  1
  C  C236  1  0.34519508  0.38787383  0.35384560  1
  C  C237  1  0.29479140  0.37107920  0.37092072  1
  C  C238  1  0.25815928  0.30469885  0.34679416  1
  C  C239  1  0.27164180  0.25504017  0.30530468  1
  C  C240  1  0.51157420  0.39213768  0.25846120  1
  C  C241  1  0.25556597  0.24130699  0.75978935  1
  C  C242  1  0.38331944  0.25393116  0.88658000  1
  C  C243  1  0.38382010  0.37942570  0.13165304  1
  C  C244  1  0.31304637  0.32889235  0.89378080  1
  C  C245  1  0.45410776  0.30448496  0.12445784  1
  C  C246  1  0.32987633  0.34212077  0.95314180  1
  C  C247  1  0.43727043  0.29124632  0.06509399  1
  C  C248  1  0.39736160  0.34247857  0.23628736  1
  C  C249  1  0.40179566  0.26591435  0.94587314  1
  C  C250  1  0.36535114  0.36745270  0.07236264  1
  C  C251  1  0.37469175  0.31034127  0.97926915  1
  C  C252  1  0.36978537  0.29080623  0.78191215  1
  C  C253  1  0.39245504  0.32302580  0.03896673  1
  C  C254  1  0.30318140  0.38643960  0.98696420  1
  C  C255  1  0.46397275  0.24693766  0.03127454  1
  C  C256  1  0.44646147  0.23442818  0.97244570  1
  C  C257  1  0.32067809  0.39892864  0.04578738  1
  C  C258  1  0.60155120  0.43390670  0.35783246  1
  C  C259  1  0.63441765  0.49698502  0.36643624  1
  C  C260  1  0.70148190  0.52541155  0.40516105  1
  C  C261  1  0.73626730  0.49096500  0.43526503  1
  C  C262  1  0.70417330  0.42782520  0.42638966  1
  C  C263  1  0.63717620  0.39917505  0.38764820  1
  C  C264  1  0.16554685  0.19963120  0.66045207  1
  C  C265  1  0.13254991  0.13666119  0.65195630  1
  C  C266  1  0.06542937  0.10836866  0.61331236  1
  C  C267  1  0.03072657  0.14283544  0.58318100  1
  C  C268  1  0.06295977  0.20586157  0.59194815  1
  C  C269  1  0.13002054  0.23438805  0.63061160  1
  C  C270  1  0.35970860  0.33807325  0.31276235  1
  C  C271  1  0.32208362  0.27159697  0.28816655  1
  C  C272  1  0.40749988  0.29513222  0.70546840  1
  C  C273  1  0.42190470  0.24529281  0.66432550  1
  C  C274  1  0.47239500  0.26198660  0.64730024  1
  C  C275  1  0.50923836  0.32830980  0.67153920  1
  C  C276  1  0.49585730  0.37799704  0.71308560  1
  C  C277  1  0.44532013  0.36154643  0.73017395  1
  C  C278  1  0.53009960  0.40435144  0.31762370  1
  C  C279  1  0.23703188  0.22909854  0.70062685  1
  C  C280  1  0.41403220  0.35539773  0.29540876  1
  C  C281  1  0.35312992  0.27788640  0.72281240  1
  C  C282  1  0.48112260  0.38634180  0.33695325  1
  C  C283  1  0.28602415  0.24702520  0.68128250  1
  C  C284  1  0.26735320  0.23369259  0.61853474  1
  C  C285  1  0.44558948  0.36096820  0.21753640  1
  C  C286  1  0.32155734  0.27239890  0.80069953  1
  C  C287  1  0.49979356  0.39967445  0.39970100  1
  C  C288  1  0.55930210  0.18929401  0.48298490  1
  C  C289  1  0.70368886  0.45173730  0.54128736  1
  C  C290  1  0.66525240  0.27874184  0.53210280  1
  C  C291  1  0.69992950  0.33717206  0.53480660  1
  C  C292  1  0.66531750  0.38595330  0.52822650  1
  C  C293  1  0.59609735  0.37484840  0.51779544  1
  C  C294  1  0.55942243  0.30968338  0.50270414  1
  C  C295  1  0.59466845  0.26011620  0.50581723  1
  C  C296  1  0.70025885  0.24774183  0.60839190  1
  C  C297  1  0.75541395  0.30793387  0.65881940  1
  C  C298  1  0.75495150  0.31524682  0.71765345  1
  C  C299  1  0.77460100  0.34826913  0.54892230  1
  C  C300  1  0.78776747  0.32626233  0.49335757  1
  C  C301  1  0.56207100  0.43226305  0.52399600  1
  C  C302  1  0.56396750  0.46547347  0.58568660  1
  C  C303  1  0.48465446  0.29441060  0.48897615  1
  C  C304  1  0.44136960  0.27709296  0.42480904  1
  C  C305  1  0.27025872  0.12015485  0.51034940  1
  C  C306  1  0.50446450  0.02721395  0.51945907  1
  C  C307  1  0.33614280  0.03687713  0.51937014  1
  C  C308  1  0.38748124  0.00965285  0.50925314  1
  C  C309  1  0.44633627  0.05347026  0.51981634  1
  C  C310  1  0.45231983  0.12377151  0.53917340  1
  C  C311  1  0.39436552  0.14752837  0.53662187  1
  C  C312  1  0.33448628  0.10161611  0.52202590  1
  C  C313  1  0.29657936  0.02108741  0.58408886  1
  C  C314  1  0.34528700  0.98911300  0.61600770  1
  C  C315  1  0.35385698  0.01234379  0.67956960  1
  C  C316  1  0.38016420  0.93471205  0.49140123  1
  C  C317  1  0.35330800  0.89625200  0.42501608  1
  C  C318  1  0.52010820  0.17307028  0.56354110  1
  C  C319  1  0.55476123  0.19912238  0.63022494  1
  C  C320  1  0.39741830  0.22201249  0.55475210  1
  C  C321  1  0.38957825  0.24316879  0.50464460  1
  N  N322  1  0.84782530  0.77159830  0.86233530  1
  N  N323  1  0.92402077  0.86654290  0.16081290  1
  N  N324  1  0.33968368  0.28534260  0.86161700  1
  N  N325  1  0.42746308  0.34802446  0.15661877  1
  O  O326  1  0.73572373  0.07130609  0.39573216  1
  O  O327  1  0.06239116  0.12067800  0.60591080  1
  O  O328  1  0.73707730  0.96360850  0.37940875  1
  O  O329  1  0.00419951  0.12406783  0.66210276  1
  O  O330  1  0.92164236  0.19383122  0.60407674  1
  O  O331  1  0.82238066  0.67114780  0.59298545  1
  O  O332  1  0.94946545  0.96699340  0.43016288  1
  O  O333  1  0.73297820  0.69723580  0.58212537  1
  O  O334  1  0.03886795  0.94090530  0.44102296  1
  O  O335  1  0.92149675  0.87169770  0.88461190  1
  O  O336  1  0.85036960  0.76643760  0.13853887  1
  O  O337  1  0.77401876  0.67133063  0.83952980  1
  O  O338  1  0.99780700  0.96681640  0.18361597  1
  O  O339  1  0.76220290  0.97257620  0.61989010  1
  O  O340  1  0.66563910  0.98136730  0.63158410  1
  O  O341  1  0.54395860  0.68625170  0.36574265  1
  O  O342  1  0.56945497  0.63674270  0.42877040  1
  O  O343  1  0.55698574  0.89717810  0.54910904  1
  O  O344  1  0.22665550  0.18257335  0.57765640  1
  O  O345  1  0.54049130  0.45079374  0.44057947  1
  O  O346  1  0.29109160  0.27270147  0.60241747  1
  O  O347  1  0.47605523  0.36066562  0.41581842  1
  O  O348  1  0.40834677  0.21072182  0.85406730  1
  O  O349  1  0.35878545  0.42262477  0.16416295  1
  O  O350  1  0.27086508  0.35985228  0.86864394  1
  O  O351  1  0.49629635  0.27353516  0.14959753  1
  O  O352  1  0.50199530  0.16431965  0.43787903  1
  O  O353  1  0.58767890  0.15298173  0.50773346  1
  O  O354  1  0.74321750  0.45753938  0.51549375  1
  O  O355  1  0.69997310  0.50224197  0.58202670  1
  O  O356  1  0.70111430  0.23883258  0.55328340  1
  O  O357  1  0.25840430  0.16237436  0.48661710  1
  O  O358  1  0.22609872  0.09192109  0.52258515  1
  O  O359  1  0.49999028  0.97537970  0.47436220  1
  O  O360  1  0.55799836  0.05469057  0.56695540  1
  O  O361  1  0.28632677  0.99851690  0.52427393  1
