# generated using pymatgen
data_Zn4H70C62N4Cl2O27
_symmetry_space_group_name_H-M   'P 1'
_cell_length_a   21.15784000
_cell_length_b   21.27466000
_cell_length_c   22.15216000
_cell_angle_alpha   111.25375000
_cell_angle_beta   110.09553000
_cell_angle_gamma   102.26020000
_symmetry_Int_Tables_number   1
_chemical_formula_structural   Zn4H70C62N4Cl2O27
_chemical_formula_sum   'Zn8 H140 C124 N8 Cl4 O54'
_cell_volume   8054.85823133
_cell_formula_units_Z   2
loop_
 _symmetry_equiv_pos_site_id
 _symmetry_equiv_pos_as_xyz
  1  'x, y, z'
loop_
 _atom_site_type_symbol
 _atom_site_label
 _atom_site_symmetry_multiplicity
 _atom_site_fract_x
 _atom_site_fract_y
 _atom_site_fract_z
 _atom_site_occupancy
  Zn  Zn0  1  0.06996912  0.02687633  0.19764474  1
  Zn  Zn1  1  0.93370240  0.87551350  0.11219376  1
  Zn  Zn2  1  0.09309328  0.88349100  0.19723797  1
  Zn  Zn3  1  0.04888276  0.89912670  0.05218942  1
  Zn  Zn4  1  0.03553075  0.35460000  0.54731230  1
  Zn  Zn5  1  0.08001021  0.39300530  0.71301680  1
  Zn  Zn6  1  0.93711950  0.40793502  0.61956870  1
  Zn  Zn7  1  0.09383741  0.51981956  0.66828900  1
  H  H8  1  0.29123133  0.10241762  0.27766743  1
  H  H9  1  0.35048768  0.16446853  0.26286662  1
  H  H10  1  0.31511724  0.19816127  0.32259040  1
  H  H11  1  0.55958460  0.37374437  0.42874460  1
  H  H12  1  0.47505835  0.36887613  0.36707857  1
  H  H13  1  0.53563166  0.34248313  0.33246353  1
  H  H14  1  0.48060820  0.93983495  0.23282444  1
  H  H15  1  0.48952132  0.99497070  0.31919476  1
  H  H16  1  0.56798774  0.98012920  0.30875850  1
  H  H17  1  0.73025820  0.14401647  0.48766540  1
  H  H18  1  0.69786936  0.09270053  0.38925257  1
  H  H19  1  0.57106644  0.25326416  0.35312074  1
  H  H20  1  0.69632990  0.04598741  0.44223960  1
  H  H21  1  0.39420930  0.99645597  0.21429393  1
  H  H22  1  0.32374972  0.03295138  0.20848222  1
  H  H23  1  0.31458080  0.95282900  0.21645753  1
  H  H24  1  0.50068270  0.08587652  0.53189915  1
  H  H25  1  0.57750180  0.07845917  0.51434180  1
  H  H26  1  0.49863404  0.00017906  0.47725162  1
  H  H27  1  0.53527015  0.27858293  0.47683072  1
  H  H28  1  0.61871880  0.29462895  0.47409720  1
  H  H29  1  0.58860910  0.15291367  0.31431416  1
  H  H30  1  0.65478390  0.19048446  0.42731280  1
  H  H31  1  0.14079376  0.29449746  0.65057120  1
  H  H32  1  0.10516594  0.12608244  0.33983010  1
  H  H33  1  0.10410846  0.14040510  0.49733907  1
  H  H34  1  0.22587958  0.21665055  0.53546770  1
  H  H35  1  0.21600252  0.23908335  0.61741585  1
  H  H36  1  0.20720810  0.29655980  0.57297800  1
  H  H37  1  0.17309096  0.12549925  0.26273236  1
  H  H38  1  0.20468453  0.04834249  0.30373335  1
  H  H39  1  0.18579940  0.99862830  0.21025306  1
  H  H40  1  0.11692565  0.97482250  0.23735990  1
  H  H41  1  0.82539700  0.00469523  0.07902956  1
  H  H42  1  0.84038000  0.03311778  0.98984724  1
  H  H43  1  0.93712070  0.05735856  0.03607134  1
  H  H44  1  0.89593065  0.11513150  0.07645964  1
  H  H45  1  0.89520800  0.24210854  0.39901766  1
  H  H46  1  0.80123794  0.20552456  0.37851182  1
  H  H47  1  0.84024310  0.14513716  0.34113076  1
  H  H48  1  0.92575280  0.36622864  0.55862653  1
  H  H49  1  0.86404943  0.36105310  0.59703326  1
  H  H50  1  0.83576550  0.29212674  0.50675920  1
  H  H51  1  0.84793687  0.05995728  0.24603273  1
  H  H52  1  0.79536260  0.13317019  0.20473008  1
  H  H53  1  0.85549015  0.14391088  0.16511393  1
  H  H54  1  0.89186716  0.18634130  0.26353870  1
  H  H55  1  0.12860084  0.09897853  0.05900383  1
  H  H56  1  0.04836660  0.12166918  0.04683387  1
  H  H57  1  0.13372381  0.18423682  0.11915827  1
  H  H58  1  0.00778790  0.32389593  0.03570783  1
  H  H59  1  0.00922992  0.29732700  0.10413873  1
  H  H60  1  0.92930734  0.25045553  0.01724482  1
  H  H61  1  0.96945214  0.93754610  0.73558110  1
  H  H62  1  0.04287458  0.02302201  0.78594840  1
  H  H63  1  0.97213180  0.99519030  0.69488925  1
  H  H64  1  0.99546826  0.18264966  0.69650100  1
  H  H65  1  0.92668580  0.09616291  0.67014295  1
  H  H66  1  0.94690020  0.19900812  0.91555530  1
  H  H67  1  0.99847263  0.09714072  0.64436346  1
  H  H68  1  0.00375570  0.97677990  0.86221963  1
  H  H69  1  0.04450135  0.00794011  0.95953447  1
  H  H70  1  0.08165112  0.96177924  0.90676010  1
  H  H71  1  0.24413404  0.20590228  0.88520090  1
  H  H72  1  0.16493547  0.17897052  0.80034160  1
  H  H73  1  0.20810366  0.11812797  0.80966514  1
  H  H74  1  0.10520555  0.29386970  0.99326540  1
  H  H75  1  0.03083578  0.28996003  0.92307216  1
  H  H76  1  0.91637444  0.10801017  0.81197727  1
  H  H77  1  0.97761893  0.18895456  0.79677170  1
  H  H78  1  0.08888520  0.51763994  0.48162988  1
  H  H79  1  0.11357522  0.61367420  0.54167600  1
  H  H80  1  0.17904882  0.58300745  0.52489030  1
  H  H81  1  0.23379433  0.82211703  0.54027224  1
  H  H82  1  0.26543468  0.79718065  0.61097130  1
  H  H83  1  0.19765146  0.83607040  0.60589904  1
  H  H84  1  0.80986077  0.54089920  0.33095276  1
  H  H85  1  0.87641215  0.54126200  0.30023944  1
  H  H86  1  0.81455845  0.58739275  0.27970758  1
  H  H87  1  0.91914890  0.72204685  0.23304358  1
  H  H88  1  0.86751705  0.71593970  0.28350973  1
  H  H89  1  0.09273693  0.77807100  0.49507573  1
  H  H90  1  0.83238536  0.64853776  0.19018601  1
  H  H91  1  0.91209096  0.53852070  0.41964070  1
  H  H92  1  0.98766910  0.52377117  0.47413468  1
  H  H93  1  0.91492530  0.45055085  0.39302910  1
  H  H94  1  0.00193678  0.49992400  0.18453023  1
  H  H95  1  0.94700783  0.55478410  0.17800654  1
  H  H96  1  0.90730290  0.46232474  0.15530670  1
  H  H97  1  0.16266915  0.70452940  0.41058830  1
  H  H98  1  0.13013743  0.77377270  0.41093410  1
  H  H99  1  0.97539970  0.73303590  0.43313664  1
  H  H100  1  0.99683076  0.74250597  0.34903590  1
  H  H101  1  0.91469860  0.42963487  0.69272950  1
  H  H102  1  0.97657645  0.75140625  0.88919884  1
  H  H103  1  0.90171820  0.56794550  0.82440080  1
  H  H104  1  0.85263500  0.58417565  0.71900964  1
  H  H105  1  0.83270650  0.48783140  0.68501090  1
  H  H106  1  0.91039260  0.54726195  0.68670374  1
  H  H107  1  0.96873800  0.86855440  0.88310590  1
  H  H108  1  0.86019695  0.81844470  0.87753960  1
  H  H109  1  0.88560230  0.91224474  0.94062364  1
  H  H110  1  0.90206224  0.84921193  0.97485930  1
  H  H111  1  0.22888122  0.92806550  0.17902648  1
  H  H112  1  0.29027438  0.04418027  0.19542300  1
  H  H113  1  0.21300532  0.03167772  0.11821926  1
  H  H114  1  0.26782566  0.97859590  0.10439086  1
  H  H115  1  0.19261026  0.62123380  0.93698320  1
  H  H116  1  0.24358617  0.60225004  0.00715756  1
  H  H117  1  0.18659146  0.65046245  0.02189517  1
  H  H118  1  0.18229057  0.46756423  0.81652856  1
  H  H119  1  0.20230650  0.39738914  0.83617120  1
  H  H120  1  0.21729167  0.48026136  0.90966606  1
  H  H121  1  0.16455290  0.75003266  0.08390188  1
  H  H122  1  0.28553050  0.79163190  0.10202789  1
  H  H123  1  0.27185700  0.86363393  0.08174574  1
  H  H124  1  0.22491457  0.76947236  0.01006687  1
  H  H125  1  0.77033760  0.81690073  0.06127501  1
  H  H126  1  0.71576970  0.74665550  0.07160544  1
  H  H127  1  0.72834490  0.83782710  0.11874008  1
  H  H128  1  0.48171464  0.69200134  0.04823708  1
  H  H129  1  0.56400520  0.72342630  0.12989509  1
  H  H130  1  0.52474620  0.62919010  0.06223309  1
  H  H131  1  0.64645374  0.57402396  0.76116586  1
  H  H132  1  0.61435974  0.64477960  0.78424940  1
  H  H133  1  0.55400770  0.55437434  0.70640016  1
  H  H134  1  0.36229697  0.55662245  0.67791736  1
  H  H135  1  0.41551554  0.49940610  0.68109210  1
  H  H136  1  0.50416420  0.60620123  0.94511970  1
  H  H137  1  0.41296637  0.54539450  0.62698865  1
  H  H138  1  0.71311680  0.64919170  0.89100760  1
  H  H139  1  0.76702120  0.71820307  0.98580520  1
  H  H140  1  0.78431153  0.73010457  0.91789705  1
  H  H141  1  0.55053157  0.82751185  0.80890330  1
  H  H142  1  0.49188430  0.73288850  0.74095523  1
  H  H143  1  0.57506580  0.77617430  0.74442774  1
  H  H144  1  0.50569570  0.75417860  0.96996707  1
  H  H145  1  0.43536988  0.66727877  0.91455270  1
  H  H146  1  0.51155084  0.54805620  0.84681420  1
  H  H147  1  0.42963487  0.58287740  0.79888950  1
  C  C148  1  0.35885265  0.07416529  0.10694079  1
  C  C149  1  0.43657207  0.12018324  0.35120952  1
  C  C150  1  0.52758350  0.23412544  0.36733374  1
  C  C151  1  0.56433743  0.25277036  0.44839644  1
  C  C152  1  0.66012670  0.23439538  0.59810674  1
  C  C153  1  0.48881888  0.14894535  0.31963277  1
  C  C154  1  0.48930973  0.13218811  0.43083894  1
  C  C155  1  0.56899005  0.18430872  0.45757395  1
  C  C156  1  0.60322260  0.14586990  0.41022146  1
  C  C157  1  0.55243510  0.12010028  0.32769114  1
  C  C158  1  0.61717373  0.21065919  0.53533864  1
  C  C159  1  0.45041320  0.13304782  0.24380697  1
  C  C160  1  0.41252002  0.11229230  0.18066661  1
  C  C161  1  0.71831965  0.26585410  0.66993830  1
  C  C162  1  0.33623978  0.15550327  0.30315855  1
  C  C163  1  0.51449670  0.34170340  0.37184270  1
  C  C164  1  0.51781730  0.98977107  0.28560350  1
  C  C165  1  0.68898160  0.09386211  0.43625942  1
  C  C166  1  0.35503763  0.00702306  0.23498693  1
  C  C167  1  0.51742417  0.05854307  0.49063012  1
  C  C168  1  0.99910800  0.96944300  0.08984797  1
  C  C169  1  0.00191030  0.02902893  0.15446109  1
  C  C170  1  0.93627060  0.03943509  0.15028282  1
  C  C171  1  0.92939590  0.07068995  0.21471485  1
  C  C172  1  0.98963493  0.09806455  0.28297246  1
  C  C173  1  0.05746595  0.09989874  0.28697200  1
  C  C174  1  0.06437264  0.06610137  0.22347905  1
  C  C175  1  0.06710071  0.22254560  0.53755724  1
  C  C176  1  0.08590533  0.27423660  0.60825020  1
  C  C177  1  0.96220210  0.26908234  0.57114327  1
  C  C178  1  0.94178030  0.21615086  0.49916333  1
  C  C179  1  0.99589320  0.19639298  0.48203894  1
  C  C180  1  0.98408350  0.15631759  0.40802166  1
  C  C181  1  0.98402600  0.12834156  0.34988803  1
  C  C182  1  0.03578819  0.30209040  0.62459797  1
  C  C183  1  0.06493636  0.37025458  0.69493380  1
  C  C184  1  0.19608300  0.23982958  0.56441456  1
  C  C185  1  0.16160996  0.02084312  0.24623469  1
  C  C186  1  0.88827384  0.05771687  0.04428961  1
  C  C187  1  0.85183940  0.19446494  0.39013398  1
  C  C188  1  0.88336270  0.32769668  0.56146944  1
  C  C189  1  0.85071707  0.13749382  0.21096360  1
  C  C190  1  0.89371480  0.96964014  0.93905675  1
  C  C191  1  0.08790608  0.13165240  0.94287825  1
  C  C192  1  0.00254923  0.20154855  0.94593490  1
  C  C193  1  0.05728732  0.25583720  0.93904650  1
  C  C194  1  0.14975666  0.31738454  0.85707533  1
  C  C195  1  0.00357526  0.12382027  0.90830550  1
  C  C196  1  0.12994376  0.17832057  0.91471040  1
  C  C197  1  0.08158143  0.21587612  0.88205470  1
  C  C198  1  0.01199707  0.15767406  0.80934410  1
  C  C199  1  0.96880470  0.10002053  0.82419306  1
  C  C200  1  0.12147286  0.27149963  0.86937237  1
  C  C201  1  0.95520920  0.07466108  0.91994110  1
  C  C202  1  0.92166280  0.02972709  0.92953020  1
  C  C203  1  0.17372565  0.37131402  0.83747333  1
  C  C204  1  0.10651976  0.14173482  0.06110847  1
  C  C205  1  0.98985374  0.27637622  0.04461598  1
  C  C206  1  0.98450094  0.99551490  0.74783460  1
  C  C207  1  0.98526090  0.12596940  0.68833840  1
  C  C208  1  0.05528188  0.00185405  0.91297305  1
  C  C209  1  0.19241038  0.16120309  0.83962524  1
  C  C210  1  0.98855230  0.63640547  0.60074750  1
  C  C211  1  0.03744809  0.58616790  0.39933634  1
  C  C212  1  0.10148931  0.72635657  0.47276288  1
  C  C213  1  0.11476947  0.71956843  0.40682536  1
  C  C214  1  0.07081797  0.68417346  0.22945587  1
  C  C215  1  0.02981883  0.66098250  0.44515505  1
  C  C216  1  0.03467227  0.58555750  0.32515790  1
  C  C217  1  0.04590280  0.66392636  0.33271664  1
  C  C218  1  0.97879195  0.68316020  0.33368370  1
  C  C219  1  0.96620935  0.67592740  0.39719373  1
  C  C220  1  0.05962462  0.67257710  0.27475640  1
  C  C221  1  0.02124140  0.66587790  0.50912420  1
  C  C222  1  0.01002916  0.66016660  0.55653214  1
  C  C223  1  0.08270190  0.70677710  0.17978561  1
  C  C224  1  0.12074577  0.57454884  0.49846846  1
  C  C225  1  0.21672845  0.79930950  0.57269500  1
  C  C226  1  0.84841710  0.57481860  0.32089958  1
  C  C227  1  0.88298106  0.68449503  0.24245107  1
  C  C228  1  0.94913775  0.50924000  0.41837520  1
  C  C229  1  0.95709310  0.51285696  0.19390891  1
  C  C230  1  0.06626187  0.97635350  0.09545529  1
  C  C231  1  0.07670384  0.91213185  0.04849279  1
  C  C232  1  0.13583995  0.89346105  0.08111942  1
  C  C233  1  0.13055167  0.82053584  0.04918337  1
  C  C234  1  0.07052550  0.76845770  0.98170877  1
  C  C235  1  0.01979453  0.79041900  0.94373860  1
  C  C236  1  0.02247827  0.86178690  0.97618186  1
  C  C237  1  0.97330123  0.52112573  0.79995865  1
  C  C238  1  0.96217984  0.45451430  0.74496470  1
  C  C239  1  0.06974527  0.44927523  0.82626800  1
  C  C240  1  0.08176617  0.51654977  0.88304010  1
  C  C241  1  0.03534681  0.55415080  0.86791390  1
  C  C242  1  0.05256847  0.62951225  0.91645210  1
  C  C243  1  0.06213580  0.69291854  0.94849260  1
  C  C244  1  0.01264609  0.42085450  0.75546500  1
  C  C245  1  0.00745027  0.36168072  0.68942170  1
  C  C246  1  0.87735367  0.54270510  0.71558100  1
  C  C247  1  0.90150940  0.86448420  0.93187440  1
  C  C248  1  0.24475142  0.00308681  0.14072454  1
  C  C249  1  0.19088252  0.60618746  0.97984135  1
  C  C250  1  0.18073155  0.44073480  0.85120744  1
  C  C251  1  0.24477708  0.80656810  0.06892061  1
  C  C252  1  0.75230140  0.59442170  0.01768088  1
  C  C253  1  0.63390000  0.73453580  0.93710570  1
  C  C254  1  0.53981847  0.66223013  0.96107910  1
  C  C255  1  0.49103817  0.69770384  0.92814240  1
  C  C256  1  0.38546768  0.73165100  0.79495883  1
  C  C257  1  0.59309506  0.65466166  0.92662670  1
  C  C258  1  0.57320080  0.75200320  0.88481665  1
  C  C259  1  0.49508306  0.69719560  0.85896575  1
  C  C260  1  0.48168224  0.61790880  0.80553660  1
  C  C261  1  0.54329340  0.59508450  0.84416350  1
  C  C262  1  0.43646696  0.71848330  0.82419676  1
  C  C263  1  0.64181554  0.62568706  0.96227490  1
  C  C264  1  0.68830764  0.60718130  0.99005127  1
  C  C265  1  0.31906816  0.73771720  0.75778470  1
  C  C266  1  0.72082870  0.79651970  0.06603610  1
  C  C267  1  0.53448940  0.68575674  0.07026589  1
  C  C268  1  0.59843740  0.58568716  0.76327740  1
  C  C269  1  0.41341773  0.55032850  0.67873716  1
  C  C270  1  0.73975590  0.70825900  0.92916790  1
  C  C271  1  0.54874367  0.77215964  0.77913564  1
  N  N272  1  0.11885273  0.19628070  0.52021700  1
  N  N273  1  0.13486342  0.07268170  0.22957487  1
  N  N274  1  0.87622890  0.01596044  0.08124676  1
  N  N275  1  0.86099180  0.07230676  0.20997027  1
  N  N276  1  0.92346746  0.55687960  0.78842354  1
  N  N277  1  0.97247240  0.88317410  0.93435407  1
  N  N278  1  0.19931300  0.94724350  0.14743233  1
  N  N279  1  0.18491505  0.79985850  0.08654189  1
  Cl  Cl280  1  0.45916050  0.17591605  0.49637902  1
  Cl  Cl281  1  0.21486977  0.25006118  0.99085780  1
  Cl  Cl282  1  0.10825215  0.56291425  0.31130480  1
  Cl  Cl283  1  0.57892287  0.84357154  0.93540883  1
  O  O284  1  0.03641396  0.92124623  0.13981347  1
  O  O285  1  0.03662265  0.41884580  0.63704990  1
  O  O286  1  0.72520375  0.32527300  0.71946645  1
  O  O287  1  0.29767856  0.08137126  0.09189998  1
  O  O288  1  0.36586276  0.01932546  0.06611573  1
  O  O289  1  0.39640698  0.16575332  0.36445403  1
  O  O290  1  0.47788545  0.26918688  0.35499415  1
  O  O291  1  0.53303325  0.04876526  0.27100173  1
  O  O292  1  0.61768960  0.08904948  0.42407486  1
  O  O293  1  0.38820267  0.04432189  0.31202500  1
  O  O294  1  0.48547740  0.06181747  0.42468660  1
  O  O295  1  0.76935697  0.24269171  0.67656280  1
  O  O296  1  0.05298033  0.94915220  0.09458648  1
  O  O297  1  0.93675900  0.93057260  0.03411405  1
  O  O298  1  0.02785124  0.41012353  0.70629660  1
  O  O299  1  0.13213757  0.39368638  0.73826240  1
  O  O300  1  0.86826400  0.17964415  0.44968307  1
  O  O301  1  0.91008640  0.28486666  0.59130260  1
  O  O302  1  0.20711692  0.43819222  0.88655940  1
  O  O303  1  0.92450666  0.97483885  0.00240827  1
  O  O304  1  0.85751870  0.90874946  0.88144684  1
  O  O305  1  0.12286322  0.17532225  0.02090418  1
  O  O306  1  0.01977894  0.22475213  0.02044320  1
  O  O307  1  0.94072920  0.02306620  0.77675760  1
  O  O308  1  0.03048769  0.12655899  0.75270330  1
  O  O309  1  0.10359156  0.06648838  0.92362880  1
  O  O310  1  0.14469723  0.12938224  0.86181260  1
  O  O311  1  0.14601114  0.35230047  0.77000487  1
  O  O312  1  0.14745773  0.72990220  0.18801887  1
  O  O313  1  0.02790125  0.61008286  0.63433420  1
  O  O314  1  0.92206770  0.62114250  0.58579790  1
  O  O315  1  0.10836936  0.58780384  0.43825307  1
  O  O316  1  0.16243966  0.72788430  0.52770040  1
  O  O317  1  0.89540684  0.63924277  0.38702986  1
  O  O318  1  0.91676486  0.64047600  0.26413482  1
  O  O319  1  0.98221710  0.51693710  0.37453923  1
  O  O320  1  0.96578130  0.53144980  0.26536226  1
  O  O321  1  0.03168039  0.71866070  0.14113872  1
  O  O322  1  0.00747759  0.98799396  0.07226086  1
  O  O323  1  0.11158820  0.01075673  0.16323936  1
  O  O324  1  0.06081007  0.34114552  0.69077766  1
  O  O325  1  0.95290460  0.34097245  0.62919940  1
  O  O326  1  0.13377649  0.53967560  0.95349900  1
  O  O327  1  0.10979040  0.40814865  0.84055810  1
  O  O328  1  0.29527860  0.77806130  0.79513544  1
  O  O329  1  0.80452555  0.64406365  0.07976067  1
  O  O330  1  0.76231223  0.54785380  0.97072430  1
  O  O331  1  0.65787405  0.78999660  0.01010180  1
  O  O332  1  0.57814220  0.70411676  0.03845465  1
  O  O333  1  0.58046420  0.56050724  0.80812985  1
  O  O334  1  0.47509572  0.61217590  0.73766460  1
  O  O335  1  0.69208115  0.74489230  0.91740610  1
  O  O336  1  0.58750350  0.74644846  0.82466120  1
  O  O337  1  0.27908550  0.69006070  0.69157064  1
