# generated using pymatgen
data_ZnH11C21Br2(NO2)2
_symmetry_space_group_name_H-M   'P 1'
_cell_length_a   10.27145000
_cell_length_b   15.53879000
_cell_length_c   16.60442000
_cell_angle_alpha   89.24236000
_cell_angle_beta   89.49398000
_cell_angle_gamma   85.96486000
_symmetry_Int_Tables_number   1
_chemical_formula_structural   ZnH11C21Br2(NO2)2
_chemical_formula_sum   'Zn2 H22 C42 Br4 N4 O8'
_cell_volume   2643.27987456
_cell_formula_units_Z   2
loop_
 _symmetry_equiv_pos_site_id
 _symmetry_equiv_pos_as_xyz
  1  'x, y, z'
loop_
 _atom_site_type_symbol
 _atom_site_label
 _atom_site_symmetry_multiplicity
 _atom_site_fract_x
 _atom_site_fract_y
 _atom_site_fract_z
 _atom_site_occupancy
  Zn  Zn0  1  0.75231504  0.02833335  0.17451160  1
  Zn  Zn1  1  0.46219500  0.04106652  0.19957186  1
  H  H2  1  0.64673316  0.64608030  0.29020536  1
  H  H3  1  0.57334380  0.42332092  0.08356184  1
  H  H4  1  0.59358620  0.40682915  0.34789625  1
  H  H5  1  0.62649065  0.66257210  0.02587090  1
  H  H6  1  0.55420030  0.24745640  0.34291157  1
  H  H7  1  0.66587670  0.82194483  0.03085562  1
  H  H8  1  0.68601066  0.80547280  0.29519877  1
  H  H9  1  0.53406620  0.26392860  0.07856835  1
  H  H10  1  0.26487637  0.94409460  0.92398940  1
  H  H11  1  0.18041551  0.09578924  0.46526983  1
  H  H12  1  0.95253474  0.13520030  0.44532502  1
  H  H13  1  0.03195486  0.95915240  0.91026485  1
  H  H14  1  0.77267670  0.91469150  0.43099877  1
  H  H15  1  0.42437717  0.06984543  0.92265606  1
  H  H16  1  0.82805640  0.97698270  0.95491960  1
  H  H17  1  0.73681897  0.93361497  0.68286390  1
  H  H18  1  0.35020688  0.98612124  0.56965680  1
  H  H19  1  0.43064976  0.01480714  0.78717864  1
  H  H20  1  0.37812510  0.03178052  0.42932045  1
  H  H21  1  0.83327160  0.91994650  0.81879550  1
  H  H22  1  0.44130626  0.91271000  0.69460950  1
  H  H23  1  0.74014586  0.86237115  0.56650750  1
  C  C24  1  0.54736674  0.29602710  0.13901018  1
  C  C25  1  0.67271030  0.77337414  0.23475699  1
  C  C26  1  0.56910190  0.38386512  0.14174575  1
  C  C27  1  0.65097487  0.68553610  0.23202139  1
  C  C28  1  0.58555293  0.42327670  0.21599536  1
  C  C29  1  0.63452417  0.64612460  0.15777184  1
  C  C30  1  0.58026546  0.37478712  0.28744853  1
  C  C31  1  0.63981146  0.69461420  0.08631861  1
  C  C32  1  0.55853860  0.28693710  0.28471932  1
  C  C33  1  0.66153836  0.78246427  0.08904780  1
  C  C34  1  0.38096488  0.00192954  0.20615190  1
  C  C35  1  0.83405150  0.06252951  0.16715984  1
  C  C36  1  0.95223370  0.10042038  0.32030990  1
  C  C37  1  0.21898168  0.05722595  0.34291655  1
  C  C38  1  0.26476818  0.97845630  0.04913268  1
  C  C39  1  0.99351610  0.99828590  0.03253724  1
  C  C40  1  0.00966337  0.10960883  0.39475945  1
  C  C41  1  0.13991650  0.08755802  0.40604877  1
  C  C42  1  0.20629644  0.96358460  0.97612610  1
  C  C43  1  0.07338525  0.97254240  0.96820120  1
  C  C44  1  0.16489930  0.04599810  0.26390833  1
  C  C45  1  0.02816094  0.06513966  0.25313252  1
  C  C46  1  0.04910450  0.01666183  0.10978189  1
  C  C47  1  0.18716146  0.00441900  0.11877651  1
  C  C48  1  0.24200134  0.01761317  0.19608608  1
  C  C49  1  0.97274310  0.04765363  0.17695309  1
  C  C50  1  0.62556620  0.02744928  0.94901980  1
  C  C51  1  0.59990040  0.00711268  0.33719274  1
  C  C52  1  0.45885605  0.99744374  0.45974842  1
  C  C53  1  0.61690900  0.05176279  0.03342152  1
  C  C54  1  0.58027935  0.98223230  0.42134747  1
  C  C55  1  0.67999935  0.93158615  0.46039274  1
  C  C56  1  0.51698170  0.00376410  0.82374310  1
  C  C57  1  0.66122000  0.90082926  0.53781950  1
  C  C58  1  0.54459880  0.92360950  0.57908740  1
  C  C59  1  0.44154710  0.96899366  0.53877300  1
  C  C60  1  0.51421480  0.03725665  0.90071970  1
  C  C61  1  0.74083530  0.98553497  0.91865040  1
  C  C62  1  0.74349220  0.95193650  0.84157705  1
  C  C63  1  0.63113350  0.95939680  0.79429940  1
  C  C64  1  0.53706570  0.91493530  0.66681606  1
  C  C65  1  0.64132030  0.93068380  0.71092755  1
  Br  Br66  1  0.39727490  0.03484446  0.37806085  1
  Br  Br67  1  0.45151502  0.96124625  0.03978173  1
  Br  Br68  1  0.81218070  0.00211379  0.00152821  1
  Br  Br69  1  0.77144560  0.14475830  0.32285870  1
  N  N70  1  0.54208934  0.24753581  0.21052447  1
  N  N71  1  0.67798760  0.82186544  0.16324267  1
  N  N72  1  0.60772550  0.51307720  0.21878584  1
  N  N73  1  0.61235140  0.55632400  0.15498132  1
  O  O74  1  0.42750973  0.92663830  0.22708434  1
  O  O75  1  0.76076716  0.00021429  0.17784822  1
  O  O76  1  0.78785920  0.13758096  0.14577112  1
  O  O77  1  0.45460173  0.06400496  0.19500725  1
  O  O78  1  0.49985390  0.02892027  0.29243138  1
  O  O79  1  0.71508116  0.99128157  0.30698198  1
  O  O80  1  0.50381124  0.07596981  0.06348026  1
  O  O81  1  0.71903867  0.03833108  0.07803082  1
