# generated using pymatgen
data_Zn2H33C38N9O22
_symmetry_space_group_name_H-M   'P 1'
_cell_length_a   9.71186574
_cell_length_b   10.85180721
_cell_length_c   19.21298714
_cell_angle_alpha   88.93433407
_cell_angle_beta   87.74247303
_cell_angle_gamma   88.90098443
_symmetry_Int_Tables_number   1
_chemical_formula_structural   Zn2H33C38N9O22
_chemical_formula_sum   'Zn2 H33 C38 N9 O22'
_cell_volume   2022.61515129
_cell_formula_units_Z   1
loop_
 _symmetry_equiv_pos_site_id
 _symmetry_equiv_pos_as_xyz
  1  'x, y, z'
loop_
 _atom_site_type_symbol
 _atom_site_label
 _atom_site_symmetry_multiplicity
 _atom_site_fract_x
 _atom_site_fract_y
 _atom_site_fract_z
 _atom_site_occupancy
  _atom_site_charge
  C  C0  1  0.60397900  0.95523800  0.02942170  1  -0.292661
  C  C1  1  0.49398500  0.98487100  0.36702600  1  -0.091346
  C  C2  1  0.61705900  0.97546100  0.32535400  1  0.099089
  C  C3  1  0.49508400  0.93292800  0.21728400  1  0.084518
  C  C4  1  0.49130333  0.92878400  0.14466550  1  -0.196892
  C  C5  1  0.60755200  0.95752300  0.10106240  1  0.341314
  C  C6  1  0.61446000  0.96804900  0.25096000  1  -0.121754
  C  C7  1  0.74248400  0.97465000  0.36065400  1  -0.101413
  C  C8  1  0.73084800  0.99615700  0.20767800  1  0.215203
  C  C9  1  0.72785300  0.99040400  0.13511760  1  -0.548593
  C  C10  1  0.02014668  0.03863880  0.74636000  1  0.028261
  C  C11  1  0.18069150  0.05749360  0.74267400  1  0.011351
  C  C12  1  0.19409080  0.08900410  0.61531000  1  0.056674
  C  C13  1  0.02869049  0.09641990  0.62002600  1  0.109878
  C  C14  1  0.55822600  0.44293300  0.76781200  1  -0.018134
  C  C15  1  0.51796000  0.43439100  0.64358000  1  -0.127785
  C  C16  1  0.60710700  0.38885500  0.69448200  1  0.024012
  C  C17  1  0.52759600  0.57654300  0.63341200  1  0.078230
  C  C18  1  0.61041200  0.24389400  0.69322200  1  0.306863
  C  C19  1  0.56066500  0.59041100  0.76641800  1  0.098803
  C  C20  1  0.61799800  0.63611400  0.69162000  1  -0.121972
  C  C21  1  0.44635900  0.65603600  0.79529400  1  -0.268329
  C  C22  1  0.38681700  0.63294400  0.61671600  1  -0.205272
  C  C23  1  0.75574300  0.44125300  0.67473200  1  -0.157550
  C  C24  1  0.77158900  0.57348600  0.68285800  1  0.162139
  C  C25  1  0.49619300  0.99186500  0.43946600  1  0.046933
  C  C26  1  0.03488880  0.88864000  0.65848400  1  0.029797
  C  C27  1  0.19721220  0.89374400  0.66250200  1  -0.084639
  C  C28  1  0.74420600  0.98315700  0.43328000  1  0.051884
  C  C29  1  0.62107300  0.99144000  0.47352000  1  -0.113229
  C  C30  1  0.62122500  0.99918100  0.55053000  1  0.376346
  C  C31  1  0.61536500  0.77914800  0.68343200  1  0.338431
  C  C32  1  0.47644000  0.96695400  0.92122800  1  -0.068433
  C  C33  1  0.59938900  0.96620000  0.88028800  1  -0.111677
  C  C34  1  0.59944700  0.98127900  0.80726400  1  0.435755
  C  C35  1  0.47836200  0.96139800  0.99409200  1  0.244935
  C  C36  1  0.72374600  0.95184800  0.91440600  1  0.121037
  C  C37  1  0.72642200  0.94774700  0.98696000  1  -0.217769
  H  H38  1  0.82463400  0.02877718  0.22863000  1  -0.049871
  H  H39  1  0.81462000  0.01820384  0.10792370  1  0.307392
  H  H40  1  0.39407400  0.99166700  0.34460600  1  0.064066
  H  H41  1  0.40387800  0.90294400  0.24622000  1  0.013082
  H  H42  1  0.39736000  0.89574200  0.12411570  1  0.085779
  H  H43  1  0.37965700  0.97001200  0.02148430  1  0.017624
  H  H44  1  0.82636900  0.93333100  0.00859636  1  0.178762
  H  H45  1  0.83542300  0.96406500  0.33458400  1  0.073616
  H  H46  1  0.41028300  0.40723100  0.65634600  1  0.109238
  H  H47  1  0.54397000  0.39088900  0.59246000  1  0.081164
  H  H48  1  0.57809300  0.58958800  0.58775800  1  0.033949
  H  H49  1  0.33890600  0.57779400  0.57631600  1  0.093507
  H  H50  1  0.21787080  0.03449850  0.56695800  1  0.027079
  H  H51  1  0.36671100  0.66104400  0.76423000  1  0.129065
  H  H52  1  0.31282200  0.63473300  0.66150400  1  0.093384
  H  H53  1  0.40217800  0.72503200  0.59253000  1  0.090906
  H  H54  1  0.78180200  0.41303950  0.62069400  1  0.114702
  H  H55  1  0.83133000  0.38882900  0.70445400  1  0.133213
  H  H56  1  0.99846200  0.05654820  0.56972400  1  0.045030
  H  H57  1  0.40435900  0.99903900  0.46721800  1  0.044946
  H  H58  1  0.00531304  0.96053400  0.77561800  1  0.067425
  H  H59  1  0.22902720  0.83769900  0.70138600  1  0.046171
  H  H60  1  0.24276120  0.85507000  0.61399200  1  0.047418
  H  H61  1  0.21705480  0.99440100  0.77729200  1  0.050768
  H  H62  1  0.00652666  0.85971100  0.60580600  1  0.035603
  H  H63  1  0.99888200  0.82257400  0.69122200  1  0.051036
  H  H64  1  0.83703400  0.98152800  0.45668400  1  0.039643
  H  H65  1  0.63939300  0.40998700  0.80318000  1  0.075547
  H  H66  1  0.63690000  0.61207500  0.80496600  1  0.041440
  H  H67  1  0.41199800  0.61689700  0.84663200  1  0.117341
  H  H68  1  0.47389500  0.75160900  0.80732800  1  0.105012
  H  H69  1  0.37769400  0.97489300  0.89735000  1  0.080402
  H  H70  1  0.82057200  0.94248300  0.88518600  1  0.044127
  N  N71  1  0.21507140  0.17821070  0.77026200  1  0.003922
  N  N72  1  0.26191680  0.20796610  0.59661600  1  -0.002501
  N  N73  1  0.42993800  0.38760900  0.79628000  1  0.001050
  N  N74  1  0.24596870  0.02371366  0.67178200  1  -0.206367
  N  N75  1  0.97017000  0.01132983  0.67577200  1  -0.225328
  N  N76  1  0.93466000  0.13184570  0.78492200  1  -0.013480
  N  N77  1  0.96088100  0.21985500  0.62182800  1  -0.042126
  N  N78  1  0.86185800  0.59721700  0.74346400  1  -0.021894
  N  N79  1  0.84949700  0.62901000  0.62133400  1  -0.023037
  O  O80  1  0.73570600  0.01752145  0.58213400  1  -0.457955
  O  O81  1  0.24926100  0.24848850  0.72435200  1  -0.065476
  O  O82  1  0.20684990  0.25373240  0.54683400  1  -0.086925
  O  O83  1  0.39115900  0.18875540  0.57477600  1  -0.146654
  O  O84  1  0.03993900  0.30651500  0.64617600  1  -0.069490
  O  O85  1  0.49612300  0.18176830  0.69073000  1  -0.399175
  O  O86  1  0.72720000  0.18192780  0.68727800  1  -0.406167
  O  O87  1  0.31870900  0.44749500  0.77422600  1  -0.093336
  O  O88  1  0.95875400  0.23468410  0.76451200  1  -0.062813
  O  O89  1  0.92748800  0.25534490  0.55780000  1  -0.101496
  O  O90  1  0.85269300  0.51597000  0.79625800  1  -0.097363
  O  O91  1  0.80124500  0.60023900  0.56003000  1  -0.108248
  O  O92  1  0.98056400  0.59022900  0.62070400  1  -0.086238
  O  O93  1  0.84293100  0.70925900  0.76940800  1  -0.103610
  O  O94  1  0.48255000  0.98880600  0.77492400  1  -0.561728
  O  O95  1  0.50494800  0.98796500  0.58664200  1  -0.356609
  O  O96  1  0.49651100  0.84053700  0.68827800  1  -0.432996
  O  O97  1  0.71762700  0.98834100  0.77162600  1  -0.571621
  O  O98  1  0.73064900  0.84063400  0.67404000  1  -0.382160
  O  O99  1  0.31746000  0.16711080  0.81390600  1  -0.101973
  O  O100  1  0.42628000  0.39232000  0.86553600  1  -0.101835
  O  O101  1  0.96182000  0.12725880  0.84577400  1  -0.112147
  Zn  Zn102  1  0.46096400  0.01091115  0.68003600  1  1.251027
  Zn  Zn103  1  0.75902600  0.01096381  0.67708200  1  1.282173
