# generated using pymatgen
data_ZnH6C15NO6
_symmetry_space_group_name_H-M   'P 1'
_cell_length_a   12.95659739
_cell_length_b   14.36567192
_cell_length_c   15.48936819
_cell_angle_alpha   85.04388335
_cell_angle_beta   88.97587063
_cell_angle_gamma   89.38101144
_symmetry_Int_Tables_number   1
_chemical_formula_structural   ZnH6C15NO6
_chemical_formula_sum   'Zn2 H12 C30 N2 O12'
_cell_volume   2871.67750445
_cell_formula_units_Z   2
loop_
 _symmetry_equiv_pos_site_id
 _symmetry_equiv_pos_as_xyz
  1  'x, y, z'
loop_
 _atom_site_type_symbol
 _atom_site_label
 _atom_site_symmetry_multiplicity
 _atom_site_fract_x
 _atom_site_fract_y
 _atom_site_fract_z
 _atom_site_occupancy
  C  C0  1  0.88394925  0.47136725  0.95417482  1
  C  C1  1  0.01250171  0.37817550  0.64662600  1
  C  C2  1  0.09645358  0.30642800  0.65513800  1
  C  C3  1  0.02673235  0.23812600  0.61359800  1
  C  C4  1  0.05199988  0.27894400  0.74117450  1
  C  C5  1  0.05670090  0.17348400  0.54976200  1
  C  C6  1  0.90611500  0.44690700  0.86523533  1
  C  C7  1  0.94432400  0.30946000  0.60423200  1
  C  C8  1  0.90431400  0.28648200  0.69331200  1
  C  C9  1  0.96434600  0.34684425  0.73012600  1
  C  C10  1  0.98392800  0.21043000  0.69903600  1
  C  C11  1  0.93138300  0.40738750  0.80071660  1
  C  C12  1  0.00507037  0.85639865  0.21433600  1
  C  C13  1  0.06001173  0.69984800  0.23432150  1
  C  C14  1  0.06746943  0.79246400  0.25407000  1
  C  C15  1  0.02059437  0.94878993  0.22258350  1
  C  C16  1  0.99041575  0.66631650  0.17440600  1
  C  C17  1  0.93509925  0.82454103  0.15437225  1
  C  C18  1  0.92682025  0.73165100  0.13510350  1
  C  C19  1  0.97730775  0.57162375  0.16880275  1
  C  C20  1  0.08083660  0.12011350  0.49682350  1
  C  C21  1  0.10234700  0.06695425  0.42400075  1
  C  C22  1  0.15968772  0.30757325  0.13733175  1
  C  C23  1  0.27517525  0.30834725  0.14105550  1
  C  C24  1  0.47962600  0.29202475  0.16859450  1
  C  C25  1  0.36851175  0.30237975  0.15104025  1
  C  C26  1  0.51987775  0.22808300  0.22119725  1
  C  C27  1  0.63236275  0.21750275  0.23886750  1
  C  C28  1  0.82504225  0.21612600  0.24934600  1
  C  C29  1  0.72736900  0.21615675  0.24470700  1
  H  H30  1  0.17720560  0.31554400  0.63992400  1
  H  H31  1  0.02403165  0.44786800  0.62594200  1
  H  H32  1  0.09630422  0.26707200  0.79828200  1
  H  H33  1  0.97189200  0.14063000  0.71999700  1
  H  H34  1  0.83070200  0.27723800  0.70622600  1
  H  H35  1  0.89964000  0.32094400  0.54712400  1
  H  H36  1  0.13794855  0.87589443  0.32077975  1
  H  H37  1  0.11206645  0.58048050  0.26373925  1
  H  H38  1  0.85366725  0.64410875  0.06919025  1
  H  H39  1  0.88166600  0.94491622  0.12847625  1
  H  H40  1  0.46574800  0.18264300  0.25006650  1
  H  H41  1  0.53090750  0.33871150  0.13836400  1
  N  N42  1  0.02320050  0.04341025  0.21900475  1
  N  N43  1  0.96495100  0.49140025  0.16323325  1
  O  O44  1  0.13936627  0.81660373  0.31208350  1
  O  O45  1  0.12330547  0.64369050  0.27828600  1
  O  O46  1  0.85460375  0.70941350  0.07739900  1
  O  O47  1  0.87172525  0.88205250  0.11148375  1
  O  O48  1  0.15504295  0.11030175  0.36757900  1
  O  O49  1  0.10559920  0.24962375  0.18995975  1
  O  O50  1  0.10751640  0.35851175  0.08134375  1
  O  O51  1  0.02130452  0.04981475  0.38365275  1
  O  O52  1  0.88069825  0.27383000  0.19707225  1
  O  O53  1  0.87715375  0.16441700  0.30525125  1
  O  O54  1  0.96116900  0.48013775  0.00251350  1
  O  O55  1  0.83668300  0.41283050  0.00282775  1
  Zn  Zn56  1  0.03165750  0.14723125  0.28324100  1
  Zn  Zn57  1  0.95400900  0.37947125  0.10103750  1
