# generated using pymatgen
data_ZnH4C15INO4F3
_symmetry_space_group_name_H-M   'P 1'
_cell_length_a   11.20423470
_cell_length_b   11.76761736
_cell_length_c   16.83701933
_cell_angle_alpha   82.57681146
_cell_angle_beta   84.77127459
_cell_angle_gamma   82.21092866
_symmetry_Int_Tables_number   1
_chemical_formula_structural   ZnH4C15INO4F3
_chemical_formula_sum   'Zn2 H8 C30 I2 N2 O8 F6'
_cell_volume   2174.86567267
_cell_formula_units_Z   2
loop_
 _symmetry_equiv_pos_site_id
 _symmetry_equiv_pos_as_xyz
  1  'x, y, z'
loop_
 _atom_site_type_symbol
 _atom_site_label
 _atom_site_symmetry_multiplicity
 _atom_site_fract_x
 _atom_site_fract_y
 _atom_site_fract_z
 _atom_site_occupancy
  C  C0  1  0.81238680  0.68329883  0.54008344  1
  C  C1  1  0.77152430  0.57881950  0.53707722  1
  C  C2  1  0.78239465  0.89897683  0.51295000  1
  C  C3  1  0.75027245  0.78665397  0.50506844  1
  C  C4  1  0.70587453  0.25642417  0.63379344  1
  C  C5  1  0.73617265  0.25588633  0.71827056  1
  C  C6  1  0.70590727  0.35477050  0.75873589  1
  C  C7  1  0.74526872  0.35714950  0.83493396  1
  C  C8  1  0.81703685  0.26180967  0.87259461  1
  C  C9  1  0.84634587  0.16316500  0.83275558  1
  C  C10  1  0.80707592  0.16040017  0.75647900  1
  C  C11  1  0.84753690  0.35156633  0.99469239  1
  C  C12  1  0.84830697  0.25721867  0.95711162  1
  C  C13  1  0.58725483  0.88108085  0.42659233  1
  C  C14  1  0.62829567  0.98569966  0.42998678  1
  C  C15  1  0.61562617  0.66513600  0.45536489  1
  C  C16  1  0.64837900  0.77763053  0.46256489  1
  C  C17  1  0.48574567  0.28980767  0.49074878  1
  C  C18  1  0.91135722  0.27460617  0.47578389  1
  C  C19  1  0.71218347  0.31026533  0.33602489  1
  C  C20  1  0.74386623  0.31914617  0.24823678  1
  C  C21  1  0.83230253  0.23690100  0.21630944  1
  C  C22  1  0.87356543  0.25119950  0.13513322  1
  C  C23  1  0.82391193  0.34519767  0.08327178  1
  C  C24  1  0.73682048  0.42779600  0.11502022  1
  C  C25  1  0.69579917  0.41432150  0.19654144  1
  C  C26  1  0.37717733  0.28724717  0.48778722  1
  C  C27  1  0.25195767  0.28434867  0.48436522  1
  C  C28  1  0.14535383  0.28154433  0.48065056  1
  C  C29  1  0.03873167  0.27834467  0.47733656  1
  F  F30  1  0.91584893  0.67780800  0.57638678  1
  F  F31  1  0.82825820  0.48577733  0.58022767  1
  F  F32  1  0.63712000  0.44941500  0.72529622  1
  F  F33  1  0.49533417  0.88423630  0.39215211  1
  F  F34  1  0.57549700  0.07922617  0.38499656  1
  F  F35  1  0.88122798  0.14353917  0.26393544  1
  H  H36  1  0.84067663  0.43657317  0.96026043  1
  H  H37  1  0.83398105  0.08397333  0.72677156  1
  H  H38  1  0.85755377  0.17284617  0.99228866  1
  H  H39  1  0.89670480  0.09184517  0.85952769  1
  H  H40  1  0.71572872  0.43263117  0.86526524  1
  H  H41  1  0.63216733  0.47158417  0.21694300  1
  H  H42  1  0.69962617  0.49656633  0.07769689  1
  H  H43  1  0.93992757  0.19156650  0.11396378  1
  I  I44  1  0.92303523  0.92158457  0.57311122  1
  I  I45  1  0.47536467  0.64249317  0.39467889  1
  N  N46  1  0.68116117  0.56793767  0.49117433  1
  N  N47  1  0.71623957  0.99626274  0.47783711  1
  O  O48  1  0.72865060  0.16211883  0.59807489  1
  O  O49  1  0.67230333  0.35567600  0.59178433  1
  O  O50  1  0.55753450  0.19284617  0.50246756  1
  O  O51  1  0.86856265  0.17549150  0.48881689  1
  O  O52  1  0.83898700  0.37145150  0.46576133  1
  O  O53  1  0.52867950  0.38870033  0.47927400  1
  O  O54  1  0.67973617  0.40387500  0.37132100  1
  O  O55  1  0.73433520  0.20983033  0.37937678  1
  Zn  Zn56  1  0.71647225  0.16176800  0.48902078  1
  Zn  Zn57  1  0.67998533  0.40229133  0.48110322  1
