# generated using pymatgen
data_CuH5C14N5O13
_symmetry_space_group_name_H-M   'P 1'
_cell_length_a   9.10522867
_cell_length_b   14.55476426
_cell_length_c   15.32273277
_cell_angle_alpha   90.99085496
_cell_angle_beta   92.09515106
_cell_angle_gamma   93.11039840
_symmetry_Int_Tables_number   1
_chemical_formula_structural   CuH5C14N5O13
_chemical_formula_sum   'Cu2 H10 C28 N10 O26'
_cell_volume   2025.91176225
_cell_formula_units_Z   2
loop_
 _symmetry_equiv_pos_site_id
 _symmetry_equiv_pos_as_xyz
  1  'x, y, z'
loop_
 _atom_site_type_symbol
 _atom_site_label
 _atom_site_symmetry_multiplicity
 _atom_site_fract_x
 _atom_site_fract_y
 _atom_site_fract_z
 _atom_site_occupancy
  C  C0  1  0.34902300  0.00685253  0.97459420  1
  C  C1  1  0.33625725  0.23525650  0.84352205  1
  C  C2  1  0.43183600  0.15899175  0.61098800  1
  C  C3  1  0.34870200  0.31791000  0.60661000  1
  C  C4  1  0.39615800  0.15116410  0.69977800  1
  C  C5  1  0.32041025  0.31529950  0.69454350  1
  C  C6  1  0.34276125  0.23241400  0.74525800  1
  C  C7  1  0.40861100  0.24206400  0.56531400  1
  C  C8  1  0.20820325  0.48102700  0.96212100  1
  C  C9  1  0.36016250  0.91484750  0.96483340  1
  C  C10  1  0.20712900  0.58031250  0.96291950  1
  C  C11  1  0.66446900  0.26353350  0.00835933  1
  C  C12  1  0.94986247  0.24581317  0.02403033  1
  C  C13  1  0.81962712  0.25370500  0.01690200  1
  C  C14  1  0.54700450  0.01887366  0.08075000  1
  C  C15  1  0.42026750  0.26959600  0.19570400  1
  C  C16  1  0.48080125  0.33467600  0.43507600  1
  C  C17  1  0.38042700  0.17144755  0.41830600  1
  C  C18  1  0.46971800  0.34746600  0.34425000  1
  C  C19  1  0.37599800  0.18051650  0.32774000  1
  C  C20  1  0.42400400  0.26755050  0.28856600  1
  C  C21  1  0.43199500  0.24773400  0.47157200  1
  C  C22  1  0.09083975  0.23679750  0.03179533  1
  C  C23  1  0.41250125  0.49279150  0.06250400  1
  C  C24  1  0.40365100  0.58497350  0.07170250  1
  C  C25  1  0.45165600  0.86862400  0.02151150  1
  C  C26  1  0.30951550  0.63179200  0.01639850  1
  C  C27  1  0.55085000  0.91965200  0.07725600  1
  Cu  Cu28  1  0.39179900  0.17427567  0.02556550  1
  Cu  Cu29  1  0.36371875  0.32726033  0.01391850  1
  H  H30  1  0.47705125  0.09918605  0.57708400  1
  H  H31  1  0.32521425  0.37601650  0.57416600  1
  H  H32  1  0.24203125  0.10341223  0.93957488  1
  H  H33  1  0.31234475  0.82025950  0.88000980  1
  H  H34  1  0.04316475  0.58600400  0.88150625  1
  H  H35  1  0.52192375  0.39629700  0.10175350  1
  H  H36  1  0.51408100  0.38921400  0.47402400  1
  H  H37  1  0.33314100  0.10642565  0.44706400  1
  H  H38  1  0.45161225  0.67635350  0.15668750  1
  H  H39  1  0.71645502  0.91325600  0.15716400  1
  N  N40  1  0.41230625  0.05937950  0.73914600  1
  N  N41  1  0.26358675  0.39967650  0.72607500  1
  N  N42  1  0.09505575  0.42355100  0.91436570  1
  N  N43  1  0.43496875  0.05753795  0.03316900  1
  N  N44  1  0.32387725  0.44288650  0.00577800  1
  N  N45  1  0.64919800  0.07472568  0.13818050  1
  N  N46  1  0.49713425  0.44223200  0.31206000  1
  N  N47  1  0.30095850  0.10558835  0.27697000  1
  N  N48  1  0.43927475  0.77004000  0.02725600  1
  N  N49  1  0.32220850  0.72529200  0.00919800  1
  O  O50  1  0.96823670  0.40829500  0.94805712  1
  O  O51  1  0.41505725  0.18128900  0.88968248  1
  O  O52  1  0.51732375  0.04904100  0.79562400  1
  O  O53  1  0.34245825  0.45801600  0.77703150  1
  O  O54  1  0.59934725  0.34062300  0.98977240  1
  O  O55  1  0.24896200  0.03825790  0.93021478  1
  O  O56  1  0.29737250  0.30785700  0.88842690  1
  O  O57  1  0.08528325  0.43205950  0.83141598  1
  O  O58  1  0.15201175  0.43032400  0.68277500  1
  O  O59  1  0.36138475  0.98337600  0.69625200  1
  O  O60  1  0.26725700  0.87186850  0.90294840  1
  O  O61  1  0.11608300  0.63022200  0.91057980  1
  O  O62  1  0.58257300  0.18745998  0.00660050  1
  O  O63  1  0.52368250  0.45711050  0.10958000  1
  O  O64  1  0.63172250  0.07202590  0.22322950  1
  O  O65  1  0.78007463  0.09687837  0.11077883  1
  O  O66  1  0.34078050  0.32605883  0.15211300  1
  O  O67  1  0.45462975  0.19652910  0.14926400  1
  O  O68  1  0.38679625  0.48827000  0.28504800  1
  O  O69  1  0.61345175  0.49181500  0.33908800  1
  O  O70  1  0.32693900  0.01696213  0.29100400  1
  O  O71  1  0.15513025  0.15891667  0.04747800  1
  O  O72  1  0.17402850  0.31201883  0.03277783  1
  O  O73  1  0.18608800  0.12483230  0.23127400  1
  O  O74  1  0.49521175  0.62677800  0.13466000  1
  O  O75  1  0.64251300  0.86912000  0.12862800  1
