# generated using pymatgen
data_ZnH28C24NO7
_symmetry_space_group_name_H-M   'P 1'
_cell_length_a   12.37453921
_cell_length_b   17.14348544
_cell_length_c   19.80022179
_cell_angle_alpha   85.92354940
_cell_angle_beta   80.55029967
_cell_angle_gamma   82.05744033
_symmetry_Int_Tables_number   1
_chemical_formula_structural   ZnH28C24NO7
_chemical_formula_sum   'Zn2 H56 C48 N2 O14'
_cell_volume   4098.68609740
_cell_formula_units_Z   2
loop_
 _symmetry_equiv_pos_site_id
 _symmetry_equiv_pos_as_xyz
  1  'x, y, z'
loop_
 _atom_site_type_symbol
 _atom_site_label
 _atom_site_symmetry_multiplicity
 _atom_site_fract_x
 _atom_site_fract_y
 _atom_site_fract_z
 _atom_site_occupancy
  C  C0  1  0.10332870  0.00227949  0.09920358  1
  C  C1  1  0.00323424  0.27068517  0.13848045  1
  C  C2  1  0.31097775  0.41967250  0.04025718  1
  C  C3  1  0.55379300  0.01433016  0.06648950  1
  C  C4  1  0.55576050  0.21431917  0.00244397  1
  C  C5  1  0.62888775  0.19487675  0.10708153  1
  C  C6  1  0.65499250  0.27214633  0.09698863  1
  C  C7  1  0.58167125  0.16476990  0.05780865  1
  C  C8  1  0.56623475  0.08295478  0.06215932  1
  C  C9  1  0.81959675  0.26166333  0.12187633  1
  C  C10  1  0.88415125  0.29407183  0.16637470  1
  C  C11  1  0.58920375  0.14318077  0.21918983  1
  C  C12  1  0.58776200  0.20672900  0.27034700  1
  C  C13  1  0.51504675  0.19473635  0.33998167  1
  C  C14  1  0.14972188  0.59985850  0.08350642  1
  C  C15  1  0.03243965  0.62297267  0.10518888  1
  C  C16  1  0.16799113  0.52161717  0.06661008  1
  C  C17  1  0.09515838  0.48626917  0.03292487  1
  C  C18  1  0.25726983  0.47397050  0.08758043  1
  C  C19  1  0.25268935  0.63854033  0.07957780  1
  C  C20  1  0.25727395  0.49759817  0.20570600  1
  C  C21  1  0.30731975  0.54458017  0.24698800  1
  C  C22  1  0.57512050  0.79736817  0.11872922  1
  C  C23  1  0.84170600  0.61106683  0.09442327  1
  C  C24  1  0.80447475  0.64604600  0.15490058  1
  C  C25  1  0.87520250  0.67989900  0.18695073  1
  C  C26  1  0.95256425  0.58239367  0.07994612  1
  C  C27  1  0.88320950  0.46215933  0.04138268  1
  C  C28  1  0.47821650  0.45927833  0.01704717  1
  C  C29  1  0.52431250  0.48198650  0.07905205  1
  C  C30  1  0.97982925  0.51110383  0.04619938  1
  C  C31  1  0.44094000  0.82806567  0.04768127  1
  C  C32  1  0.98764725  0.67367700  0.15889262  1
  C  C33  1  0.19163853  0.97284917  0.05114602  1
  C  C34  1  0.29818345  0.99267767  0.06756317  1
  C  C35  1  0.45541700  0.90841500  0.04441157  1
  C  C36  1  0.60125850  0.87565367  0.10738685  1
  C  C37  1  0.53906000  0.93199017  0.07176488  1
  C  C38  1  0.27067530  0.27652183  0.96109183  1
  C  C39  1  0.29763557  0.22850217  0.89830017  1
  C  C40  1  0.59556200  0.28796400  0.98910967  1
  C  C41  1  0.14711450  0.43241500  0.98432467  1
  C  C42  1  0.08173038  0.47891367  0.88427183  1
  C  C43  1  0.02177352  0.45960133  0.82746433  1
  C  C44  1  0.34207800  0.76420250  0.91059833  1
  C  C45  1  0.37138950  0.76512483  0.83273850  1
  C  C46  1  0.25760460  0.40018283  0.98836233  1
  C  C47  1  0.41021275  0.80977883  0.94312950  1
  H  H48  1  0.02616167  0.20665650  0.14701818  1
  H  H49  1  0.04638350  0.29852233  0.16478817  1
  H  H50  1  0.01753166  0.28434350  0.08738768  1
  H  H51  1  0.29100422  0.05702205  0.06627175  1
  H  H52  1  0.09186770  0.06731080  0.09779357  1
  H  H53  1  0.42871650  0.19620615  0.33195167  1
  H  H54  1  0.30432375  0.24832167  0.00369775  1
  H  H55  1  0.84566625  0.27799550  0.06584017  1
  H  H56  1  0.83855225  0.19666108  0.12870118  1
  H  H57  1  0.85929575  0.35744000  0.16387618  1
  H  H58  1  0.86322650  0.27473100  0.22137683  1
  H  H59  1  0.61298975  0.08674323  0.24643517  1
  H  H60  1  0.50626150  0.14543117  0.20496117  1
  H  H61  1  0.67226475  0.20572183  0.28137550  1
  H  H62  1  0.55424225  0.26309817  0.24675283  1
  H  H63  1  0.51506200  0.24245967  0.37518650  1
  H  H64  1  0.54673525  0.13987163  0.36731350  1
  H  H65  1  0.03572443  0.69932433  0.18414160  1
  H  H66  1  0.27228217  0.43803617  0.22907367  1
  H  H67  1  0.17404180  0.52059983  0.20885850  1
  H  H68  1  0.27346065  0.54113183  0.29943067  1
  H  H69  1  0.29081008  0.60317833  0.23235183  1
  H  H70  1  0.39276600  0.52702200  0.24216600  1
  H  H71  1  0.56409525  0.43247050  0.10360895  1
  H  H72  1  0.67560375  0.78023750  0.18668560  1
  H  H73  1  0.72868025  0.64430083  0.17589698  1
  H  H74  1  0.84293150  0.70895050  0.23076250  1
  H  H75  1  0.78266550  0.59477150  0.06553358  1
  H  H76  1  0.57729575  0.52580250  0.05833188  1
  H  H77  1  0.47860825  0.50977883  0.11709738  1
  H  H78  1  0.20106960  0.90827317  0.05267798  1
  H  H79  1  0.11496395  0.98043100  0.15253870  1
  H  H80  1  0.03806627  0.98768300  0.08833895  1
  H  H81  1  0.18182122  0.99289533  0.00269872  1
  H  H82  1  0.30880750  0.97165800  0.12185915  1
  H  H83  1  0.66493325  0.89238850  0.13193057  1
  H  H84  1  0.07273495  0.41324000  0.79545000  1
  H  H85  1  0.00239196  0.50861017  0.79447800  1
  H  H86  1  0.17897820  0.28537050  0.97535283  1
  H  H87  1  0.26018265  0.17478183  0.91151933  1
  H  H88  1  0.26319625  0.26037000  0.85374150  1
  H  H89  1  0.52211700  0.30489167  0.90630417  1
  H  H90  1  0.50680400  0.19681938  0.96736433  1
  H  H91  1  0.38761725  0.21200733  0.88414683  1
  H  H92  1  0.16261345  0.49322200  0.85794600  1
  H  H93  1  0.03074633  0.53014767  0.91001400  1
  H  H94  1  0.49750725  0.78012300  0.93346300  1
  H  H95  1  0.36016675  0.70454833  0.93260150  1
  H  H96  1  0.31726075  0.73072067  0.81184317  1
  H  H97  1  0.45806050  0.73872483  0.81658683  1
  H  H98  1  0.54291525  0.44374333  0.97770000  1
  H  H99  1  0.43191275  0.50817450  0.98957867  1
  H  H100  1  0.25505650  0.78981067  0.92673750  1
  H  H101  1  0.94280725  0.44141400  0.85219383  1
  H  H102  1  0.40142325  0.86959883  0.91842750  1
  H  H103  1  0.35490325  0.82524700  0.80983267  1
  N  N104  1  0.64754875  0.31916350  0.03727962  1
  N  N105  1  0.49967400  0.76969667  0.08361383  1
  O  O106  1  0.42100025  0.39427583  0.03689720  1
  O  O107  1  0.71042200  0.29260883  0.14420875  1
  O  O108  1  0.67000300  0.14717972  0.15986747  1
  O  O109  1  0.34037050  0.62266267  0.03091837  1
  O  O110  1  0.29135680  0.66523683  0.13100972  1
  O  O111  1  0.31226725  0.49716567  0.13717638  1
  O  O112  1  0.36411950  0.80918550  0.01315400  1
  O  O113  1  0.61620525  0.75403333  0.17180402  1
  O  O114  1  0.80001250  0.45800250  0.09402893  1
  O  O115  1  0.38340450  0.96406117  0.01524137  1
  O  O116  1  0.57694900  0.32861017  0.92798867  1
  O  O117  1  0.31362675  0.34723533  0.94289183  1
  O  O118  1  0.09578268  0.41319100  0.93136967  1
  O  O119  1  0.85171350  0.44593967  0.98287467  1
  Zn  Zn120  1  0.45285000  0.64778667  0.08218573  1
  Zn  Zn121  1  0.70424400  0.44022700  0.03364053  1
