# generated using pymatgen
data_Cu2H19C41N3O10
_symmetry_space_group_name_H-M   'P 1'
_cell_length_a   12.38556267
_cell_length_b   12.57412064
_cell_length_c   15.69551841
_cell_angle_alpha   110.68354455
_cell_angle_beta   95.55629994
_cell_angle_gamma   108.57746664
_symmetry_Int_Tables_number   1
_chemical_formula_structural   Cu2H19C41N3O10
_chemical_formula_sum   'Cu2 H19 C41 N3 O10'
_cell_volume   2106.40280121
_cell_formula_units_Z   1
loop_
 _symmetry_equiv_pos_site_id
 _symmetry_equiv_pos_as_xyz
  1  'x, y, z'
loop_
 _atom_site_type_symbol
 _atom_site_label
 _atom_site_symmetry_multiplicity
 _atom_site_fract_x
 _atom_site_fract_y
 _atom_site_fract_z
 _atom_site_occupancy
  C  C0  1  0.03064408  0.92032043  0.05372687  1
  C  C1  1  0.02275721  0.71975263  0.28033656  1
  C  C2  1  0.24809105  0.75206162  0.02723074  1
  C  C3  1  0.06494873  0.76435133  0.38621233  1
  C  C4  1  0.16389557  0.87268205  0.42491978  1
  C  C5  1  0.04362010  0.34716683  0.14545949  1
  C  C6  1  0.02488329  0.30463867  0.21266333  1
  C  C7  1  0.72297217  0.93649628  0.35182056  1
  C  C8  1  0.45623833  0.78566575  0.03647633  1
  C  C9  1  0.47869883  0.81937903  0.13392208  1
  C  C10  1  0.38445767  0.83656550  0.17540642  1
  C  C11  1  0.59304767  0.84528110  0.19341933  1
  C  C12  1  0.61174817  0.90030863  0.29218422  1
  C  C13  1  0.51668467  0.91315860  0.32978378  1
  C  C14  1  0.40567450  0.87396537  0.27055889  1
  C  C15  1  0.68341383  0.80865307  0.15990559  1
  C  C16  1  0.81189200  0.90575050  0.31367556  1
  C  C17  1  0.65210050  0.72728262  0.06517677  1
  C  C18  1  0.90927733  0.54999950  0.07846898  1
  C  C19  1  0.95120083  0.47937233  0.10158596  1
  C  C20  1  0.99015133  0.41531550  0.12254739  1
  C  C21  1  0.19989792  0.94878358  0.51607678  1
  C  C22  1  0.03076023  0.82499462  0.54830978  1
  C  C23  1  0.13496790  0.93006413  0.57780678  1
  C  C24  1  0.01975491  0.89993643  0.71585444  1
  C  C25  1  0.03354138  0.93768723  0.88967800  1
  C  C26  1  0.85063700  0.72508497  0.59203444  1
  C  C27  1  0.79572900  0.70957417  0.66125833  1
  C  C28  1  0.85669033  0.78072562  0.75747178  1
  C  C29  1  0.97060317  0.87690170  0.78865156  1
  C  C30  1  0.96632883  0.81501640  0.61753956  1
  C  C31  1  0.80519350  0.75154438  0.82268678  1
  C  C32  1  0.86515683  0.80635350  0.91642811  1
  C  C33  1  0.99840600  0.73676108  0.45178467  1
  C  C34  1  0.33965500  0.74161025  0.98228311  1
  C  C35  1  0.97970567  0.89871617  0.95686256  1
  C  C36  1  0.07496750  0.23210617  0.23157756  1
  C  C37  1  0.10961843  0.16250250  0.24686944  1
  C  C38  1  0.14929365  0.08716800  0.26331467  1
  C  C39  1  0.17582765  0.01911783  0.66897633  1
  C  C40  1  0.12078748  0.00383500  0.73780200  1
  Cu  Cu41  1  0.15294337  0.89542770  0.18845028  1
  Cu  Cu42  1  0.90419000  0.74449342  0.15326834  1
  H  H43  1  0.15919110  0.92210893  0.33229778  1
  H  H44  1  0.33416683  0.87197985  0.29769500  1
  H  H45  1  0.10404068  0.32928550  0.10921053  1
  H  H46  1  0.52496950  0.95111042  0.40519144  1
  H  H47  1  0.89801300  0.94321143  0.36475689  1
  H  H48  1  0.52457267  0.79724545  0.00408767  1
  H  H49  1  0.73739250  0.98455850  0.42811944  1
  H  H50  1  0.96216433  0.32493783  0.25206922  1
  H  H51  1  0.71214200  0.64078600  0.64033800  1
  H  H52  1  0.80025167  0.66659100  0.51893489  1
  H  H53  1  0.72437400  0.68030950  0.80158078  1
  H  H54  1  0.93025500  0.65556550  0.43260100  1
  H  H55  1  0.16229412  0.71291638  0.98405944  1
  H  H56  1  0.32438183  0.70907313  0.90992478  1
  H  H57  1  0.86534383  0.71916045  0.98374944  1
  H  H58  1  0.27585732  0.03055233  0.53449978  1
  H  H59  1  0.25017005  0.09562900  0.68649467  1
  H  H60  1  0.11769687  0.00524633  0.91073533  1
  H  H61  1  0.15556308  0.07154667  0.80390567  1
  N  N62  1  0.27616052  0.81956873  0.12414452  1
  N  N63  1  0.78708383  0.82956123  0.21816711  1
  N  N64  1  0.61119467  0.64994817  0.97299922  1
  O  O65  1  0.10403627  0.75041328  0.23136711  1
  O  O66  1  0.22060897  0.92225622  0.37359956  1
  O  O67  1  0.13478835  0.92261258  0.07457213  1
  O  O68  1  0.07641317  0.99075894  0.26272333  1
  O  O69  1  0.81816017  0.57381783  0.10206696  1
  O  O70  1  0.92743933  0.73150253  0.25821878  1
  O  O71  1  0.95632633  0.88307073  0.10557762  1
  O  O72  1  0.98010383  0.64255967  0.07146712  1
  O  O73  1  0.81239433  0.75085188  0.96555289  1
  O  O74  1  0.24210633  0.06577283  0.24091422  1
