# generated using pymatgen
data_Zn4H16C62N5O26F7
_symmetry_space_group_name_H-M   'P 1'
_cell_length_a   23.24177564
_cell_length_b   23.86028938
_cell_length_c   28.04786430
_cell_angle_alpha   87.98147344
_cell_angle_beta   87.09932493
_cell_angle_gamma   79.75623051
_symmetry_Int_Tables_number   1
_chemical_formula_structural   Zn4H16C62N5O26F7
_chemical_formula_sum   'Zn8 H32 C124 N10 O52 F14'
_cell_volume   15281.11215291
_cell_formula_units_Z   2
loop_
 _symmetry_equiv_pos_site_id
 _symmetry_equiv_pos_as_xyz
  1  'x, y, z'
loop_
 _atom_site_type_symbol
 _atom_site_label
 _atom_site_symmetry_multiplicity
 _atom_site_fract_x
 _atom_site_fract_y
 _atom_site_fract_z
 _atom_site_occupancy
  C  C0  1  0.00656218  0.94807920  0.97833010  1
  C  C1  1  0.95589600  0.94329945  0.95471725  1
  C  C2  1  0.85357600  0.93558060  0.95874565  1
  C  C3  1  0.95582400  0.94149135  0.90385055  1
  C  C4  1  0.85529200  0.93328705  0.90792260  1
  C  C5  1  0.94739700  0.89670450  0.80166150  1
  C  C6  1  0.86482900  0.97333475  0.80195800  1
  C  C7  1  0.90613700  0.93554510  0.82815600  1
  C  C8  1  0.90427400  0.94055990  0.98253630  1
  C  C9  1  0.94806000  0.89618050  0.75108350  1
  C  C10  1  0.80198600  0.93295605  0.98624940  1
  C  C11  1  0.86485700  0.97297225  0.75148800  1
  C  C12  1  0.43433600  0.35081000  0.85794800  1
  C  C13  1  0.33382900  0.39712450  0.84763650  1
  C  C14  1  0.44513900  0.35145700  0.80912100  1
  C  C15  1  0.34414900  0.39916200  0.79891950  1
  C  C16  1  0.40054900  0.37754550  0.77908400  1
  C  C17  1  0.37921300  0.37459500  0.87690400  1
  C  C18  1  0.35763200  0.44255800  0.99294549  1
  C  C19  1  0.37500800  0.33380500  0.95569020  1
  C  C20  1  0.36219900  0.43492900  0.94397950  1
  C  C21  1  0.09022170  0.85652550  0.60491450  1
  C  C22  1  0.07599520  0.99900725  0.53145550  1
  C  C23  1  0.14202860  0.81704600  0.61727850  1
  C  C24  1  0.18419970  0.77918350  0.61861800  1
  C  C25  1  0.23028500  0.73157200  0.61403550  1
  C  C26  1  0.26687900  0.68915300  0.60819100  1
  C  C27  1  0.17645600  0.99975323  0.55507950  1
  C  C28  1  0.72223800  0.67201800  0.58575700  1
  C  C29  1  0.79168300  0.76014550  0.60658350  1
  C  C30  1  0.81620400  0.70687700  0.58916350  1
  C  C31  1  0.82273400  0.80463600  0.60585200  1
  C  C32  1  0.90696100  0.93478765  0.72452500  1
  C  C33  1  0.87556600  0.69701550  0.57262700  1
  C  C34  1  0.90965500  0.84310800  0.58252600  1
  C  C35  1  0.88189000  0.79727150  0.58685300  1
  C  C36  1  0.90871500  0.74179700  0.57217550  1
  C  C37  1  0.91014700  0.93768655  0.67293700  1
  C  C38  1  0.30669400  0.63716250  0.60194550  1
  C  C39  1  0.33732000  0.59056700  0.59982650  1
  C  C40  1  0.36459900  0.54151400  0.60206000  1
  C  C41  1  0.41235400  0.38431900  0.73082100  1
  C  C42  1  0.37670300  0.33599550  0.60776550  1
  C  C43  1  0.44589600  0.44972050  0.50473050  1
  C  C44  1  0.78011400  0.66097000  0.59390950  1
  C  C45  1  0.56419400  0.35406450  0.58588050  1
  C  C46  1  0.55670300  0.51863800  0.60953650  1
  C  C47  1  0.60216700  0.55503550  0.60862700  1
  C  C48  1  0.65334300  0.54133050  0.57841500  1
  C  C49  1  0.69355900  0.57851300  0.57382350  1
  C  C50  1  0.68317700  0.63027700  0.59708700  1
  C  C51  1  0.63326400  0.64388350  0.62810350  1
  C  C52  1  0.59294700  0.60604900  0.63427700  1
  C  C53  1  0.61704700  0.32643350  0.56979600  1
  C  C54  1  0.13534570  0.00974700  0.51892950  1
  C  C55  1  0.22011300  0.08078150  0.52363500  1
  C  C56  1  0.21925200  0.03519300  0.55764300  1
  C  C57  1  0.24312300  0.16631400  0.56102400  1
  C  C58  1  0.25739600  0.12487100  0.52839300  1
  C  C59  1  0.25354400  0.27037950  0.56352600  1
  C  C60  1  0.28624800  0.31241100  0.57608750  1
  C  C61  1  0.27911600  0.21169550  0.56605050  1
  C  C62  1  0.34488000  0.29589700  0.59026500  1
  C  C63  1  0.37032600  0.23733850  0.58939700  1
  C  C64  1  0.33770500  0.19617200  0.57815950  1
  C  C65  1  0.66434900  0.29810500  0.56126100  1
  C  C66  1  0.71870200  0.26136400  0.55701750  1
  C  C67  1  0.76401000  0.22795900  0.55664450  1
  C  C68  1  0.81572700  0.18720000  0.55847950  1
  C  C69  1  0.85891300  0.15115900  0.56070450  1
  C  C70  1  0.90886300  0.10662200  0.56311700  1
  C  C71  1  0.90211300  0.95276720  0.44596050  1
  C  C72  1  0.90754900  0.95329310  0.49727000  1
  C  C73  1  0.94877000  0.95730225  0.26233300  1
  C  C74  1  0.85700300  0.99023717  0.37026450  1
  C  C75  1  0.85850900  0.99021035  0.42103300  1
  C  C76  1  0.94288400  0.91469655  0.41724750  1
  C  C77  1  0.94060100  0.91489285  0.36703350  1
  C  C78  1  0.89835400  0.95288630  0.34223550  1
  C  C79  1  0.84851600  0.94809420  0.26632550  1
  C  C80  1  0.37072500  0.41727350  0.39985950  1
  C  C81  1  0.44610100  0.47180850  0.37450200  1
  C  C82  1  0.38491900  0.41985700  0.44673900  1
  C  C83  1  0.46019300  0.47566850  0.42141250  1
  C  C84  1  0.43042500  0.44870900  0.45803850  1
  C  C85  1  0.40186500  0.44231250  0.36395700  1
  C  C86  1  0.36911500  0.48159900  0.28839300  1
  C  C87  1  0.40264900  0.38136250  0.29811350  1
  C  C88  1  0.39387200  0.37318850  0.25040350  1
  C  C89  1  0.14016510  0.05197850  0.48355400  1
  C  C90  1  0.18199560  0.08701550  0.48587800  1
  C  C91  1  0.00399113  0.95545455  0.13411700  1
  C  C92  1  0.00225350  0.95784585  0.18399700  1
  C  C93  1  0.00626881  0.95022195  0.02819900  1
  C  C94  1  0.90016300  0.94962015  0.18763450  1
  C  C95  1  0.84858000  0.94647755  0.21542250  1
  C  C96  1  0.95066600  0.95497890  0.21148150  1
  C  C97  1  0.85059700  0.94005075  0.06138200  1
  C  C98  1  0.95398300  0.95021695  0.10877300  1
  C  C99  1  0.95505100  0.94780565  0.05739700  1
  C  C100  1  0.84960500  0.94221885  0.11273850  1
  C  C101  1  0.90331800  0.94280680  0.03396950  1
  C  C102  1  0.90125500  0.94735565  0.13618150  1
  C  C103  1  0.80041900  0.93518280  0.03611450  1
  C  C104  1  0.79809100  0.94134770  0.19174350  1
  C  C105  1  0.79846000  0.93938065  0.14187700  1
  C  C106  1  0.34893200  0.49705250  0.01133300  1
  C  C107  1  0.36366300  0.39431150  0.02385850  1
  C  C108  1  0.37313800  0.35177050  0.10401950  1
  C  C109  1  0.35273800  0.45648950  0.09214300  1
  C  C110  1  0.35150200  0.46280400  0.14192000  1
  C  C111  1  0.37943700  0.35841550  0.15306300  1
  C  C112  1  0.36272100  0.40089750  0.07355700  1
  C  C113  1  0.36779800  0.41393950  0.17181300  1
  C  C114  1  0.34643500  0.50402850  0.06006950  1
  C  C115  1  0.33563900  0.51664300  0.16290950  1
  C  C116  1  0.34058300  0.52283400  0.21121350  1
  C  C117  1  0.36090900  0.47554100  0.24020450  1
  C  C118  1  0.37379300  0.42083250  0.22084350  1
  C  C119  1  0.37206400  0.33940050  0.00493650  1
  C  C120  1  0.40613800  0.31883600  0.23165200  1
  C  C121  1  0.39904400  0.31144750  0.18384900  1
  C  C122  1  0.37817600  0.29745550  0.08407550  1
  C  C123  1  0.37793500  0.29147750  0.03531700  1
  F  F124  1  0.50009200  0.32989350  0.79208350  1
  F  F125  1  0.29898400  0.42332800  0.77180500  1
  F  F126  1  0.69784600  0.72272750  0.56530450  1
  F  F127  1  0.99004200  0.85808600  0.72846850  1
  F  F128  1  0.80356000  0.61168700  0.61038600  1
  F  F129  1  0.42124400  0.22087500  0.60035450  1
  F  F130  1  0.36034500  0.14559750  0.58123850  1
  F  F131  1  0.82367900  0.01112900  0.72929950  1
  F  F132  1  0.98355500  0.87875150  0.43627700  1
  F  F133  1  0.35397700  0.39382800  0.48048400  1
  F  F134  1  0.50402300  0.50412950  0.43031800  1
  F  F135  1  0.18156760  0.13083050  0.45355650  1
  F  F136  1  0.09894850  0.06436600  0.45028300  1
  F  F137  1  0.82162900  0.02408250  0.44311750  1
  H  H138  1  0.04501000  0.95004850  0.95930795  1
  H  H139  1  0.97779300  0.86810350  0.81929550  1
  H  H140  1  0.76422200  0.92948645  0.97010600  1
  H  H141  1  0.34465300  0.53474650  0.98813415  1
  H  H142  1  0.46946800  0.33403100  0.88128300  1
  H  H143  1  0.29123600  0.41557100  0.86296400  1
  H  H144  1  0.83425600  0.00240850  0.81973100  1
  H  H145  1  0.19925570  0.95661430  0.61408700  1
  H  H146  1  0.75038400  0.76660200  0.62243850  1
  H  H147  1  0.22322100  0.37508950  0.56553250  1
  H  H148  1  0.72793600  0.56950250  0.55168500  1
  H  H149  1  0.20446300  0.14848050  0.61767200  1
  H  H150  1  0.18426720  0.25935650  0.53348400  1
  H  H151  1  0.28760800  0.04963850  0.59059000  1
  H  H152  1  0.97257400  0.88481500  0.34719200  1
  H  H153  1  0.33640400  0.39451850  0.39110400  1
  H  H154  1  0.47030600  0.49073500  0.34611950  1
  H  H155  1  0.29203700  0.14655050  0.47112750  1
  H  H156  1  0.42195500  0.28161200  0.25371850  1
  H  H157  1  0.82377000  0.02028900  0.35261350  1
  H  H158  1  0.04741750  0.95380540  0.04281250  1
  H  H159  1  0.04213770  0.96177625  0.20101600  1
  H  H160  1  0.04335970  0.95774785  0.11717050  1
  H  H161  1  0.75978300  0.93568900  0.12776800  1
  H  H162  1  0.75747100  0.93886675  0.21175150  1
  H  H163  1  0.76103100  0.93313830  0.05316300  1
  H  H164  1  0.34180000  0.54739650  0.07120000  1
  H  H165  1  0.31864900  0.55501400  0.14310800  1
  H  H166  1  0.32919300  0.56515550  0.22552700  1
  H  H167  1  0.38334400  0.24890650  0.02155350  1
  H  H168  1  0.38189700  0.25846500  0.10513250  1
  H  H169  1  0.41156700  0.26839100  0.17196050  1
  N  N170  1  0.90587200  0.93659990  0.88086050  1
  N  N171  1  0.37099900  0.38118600  0.92669750  1
  N  N172  1  0.62501500  0.69452650  0.65548350  1
  N  N173  1  0.79448700  0.85533000  0.62941400  1
  N  N174  1  0.96802500  0.73132600  0.55343700  1
  N  N175  1  0.54229100  0.62012400  0.66599850  1
  N  N176  1  0.66291300  0.49242900  0.54874650  1
  N  N177  1  0.90217500  0.64200350  0.55545100  1
  N  N178  1  0.89825000  0.95336955  0.28942150  1
  N  N179  1  0.39053300  0.43494850  0.31575600  1
  O  O180  1  0.00414175  0.94600465  0.87847250  1
  O  O181  1  0.80776800  0.92672435  0.88661200  1
  O  O182  1  0.36017200  0.47949200  0.91442360  1
  O  O183  1  0.38271500  0.28281050  0.93712585  1
  O  O184  1  0.06781440  0.85151400  0.56473850  1
  O  O185  1  0.05979070  0.89758650  0.63013100  1
  O  O186  1  0.06144640  0.94697980  0.53290950  1
  O  O187  1  0.01087877  0.72489000  0.58236750  1
  O  O188  1  0.16928480  0.95865640  0.58994900  1
  O  O189  1  0.74323200  0.88097400  0.61650700  1
  O  O190  1  0.62331400  0.69061000  0.70189600  1
  O  O191  1  0.61208800  0.74434450  0.63449950  1
  O  O192  1  0.50913200  0.67005100  0.66302400  1
  O  O193  1  0.81343500  0.86785200  0.66985200  1
  O  O194  1  0.96018000  0.97905690  0.59099900  1
  O  O195  1  0.96678500  0.83982100  0.57543400  1
  O  O196  1  0.87825200  0.89384100  0.58744350  1
  O  O197  1  0.97911100  0.72136150  0.50830450  1
  O  O198  1  0.95234100  0.90250200  0.64775750  1
  O  O199  1  0.87358200  0.97704585  0.64848250  1
  O  O200  1  0.87109100  0.98727595  0.52676000  1
  O  O201  1  0.95244600  0.91868675  0.51642350  1
  O  O202  1  0.26191100  0.36984800  0.57482700  1
  O  O203  1  0.34602200  0.50675700  0.63383900  1
  O  O204  1  0.41242800  0.52442050  0.57511550  1
  O  O205  1  0.45344100  0.43080000  0.63350100  1
  O  O206  1  0.49972500  0.54037850  0.61070300  1
  O  O207  1  0.35303700  0.38992600  0.61257250  1
  O  O208  1  0.53226900  0.39420250  0.55976400  1
  O  O209  1  0.46267200  0.35998950  0.71131000  1
  O  O210  1  0.37323600  0.41676500  0.70513450  1
  O  O211  1  0.48583300  0.48006150  0.51743800  1
  O  O212  1  0.42093000  0.42044200  0.53830000  1
  O  O213  1  0.54708500  0.34129150  0.62933750  1
  O  O214  1  0.52934400  0.58318050  0.69819200  1
  O  O215  1  0.57132400  0.46312050  0.60287450  1
  O  O216  1  0.71456400  0.46071550  0.54538900  1
  O  O217  1  0.62467200  0.48696100  0.51768750  1
  O  O218  1  0.87565300  0.61643350  0.52524700  1
  O  O219  1  0.95344200  0.61763750  0.56927800  1
  O  O220  1  0.19277200  0.16866550  0.58950150  1
  O  O221  1  0.19679310  0.28843850  0.54945750  1
  O  O222  1  0.25691500  0.02579450  0.59496400  1
  O  O223  1  0.04169140  0.04371000  0.54924250  1
  O  O224  1  0.42986800  0.31904250  0.62225750  1
  O  O225  1  0.92357800  0.07232050  0.52594650  1
  O  O226  1  0.93957400  0.09767800  0.60289050  1
  O  O227  1  0.99614500  0.96427075  0.28366400  1
  O  O228  1  0.80037600  0.94279760  0.29163150  1
  O  O229  1  0.35672800  0.53238050  0.30739800  1
  O  O230  1  0.42425900  0.33756600  0.32580900  1
  O  O231  1  0.30557200  0.12404450  0.49769350  1
  Zn  Zn232  1  0.00485814  0.91815340  0.58229100  1
  Zn  Zn233  1  0.98797000  0.91580475  0.57656950  1
  Zn  Zn234  1  0.89430300  0.96693335  0.58928800  1
  Zn  Zn235  1  0.38373500  0.43505900  0.64368600  1
  Zn  Zn236  1  0.47351800  0.36574000  0.64851450  1
  Zn  Zn237  1  0.46127800  0.44356200  0.58022600  1
  Zn  Zn238  1  0.49783000  0.47570100  0.59216250  1
  Zn  Zn239  1  0.96878900  0.04535000  0.56739800  1
