# generated using pymatgen
data_Zn4H24(C7O2)7
_symmetry_space_group_name_H-M   'P 1'
_cell_length_a   15.46970000
_cell_length_b   15.51998000
_cell_length_c   15.78198000
_cell_angle_alpha   104.06806000
_cell_angle_beta   108.88145000
_cell_angle_gamma   87.89742000
_symmetry_Int_Tables_number   1
_chemical_formula_structural   Zn4H24(C7O2)7
_chemical_formula_sum   'Zn4 H24 C49 O14'
_cell_volume   3474.02974866
_cell_formula_units_Z   1
loop_
 _symmetry_equiv_pos_site_id
 _symmetry_equiv_pos_as_xyz
  1  'x, y, z'
loop_
 _atom_site_type_symbol
 _atom_site_label
 _atom_site_symmetry_multiplicity
 _atom_site_fract_x
 _atom_site_fract_y
 _atom_site_fract_z
 _atom_site_occupancy
  _atom_site_charge
  Zn  Zn0  1  0.04871416  0.10905667  0.53487060  1  1.499677
  Zn  Zn1  1  0.87202880  0.21302459  0.55067664  1  1.204805
  Zn  Zn2  1  0.91263510  0.03649163  0.61726916  1  1.119581
  Zn  Zn3  1  0.03978276  0.20977277  0.73021346  1  1.086550
  H  H4  1  0.19768286  0.07550309  0.97944090  1  -0.066723
  H  H5  1  0.98524576  0.91040600  0.04012490  1  0.053564
  H  H6  1  0.10840523  0.95816770  0.99669707  1  0.148701
  H  H7  1  0.04567230  0.27498266  0.09954596  1  0.048461
  H  H8  1  0.73870367  0.20665747  0.24207231  1  0.078091
  H  H9  1  0.94184595  0.30214390  0.15836560  1  0.120835
  H  H10  1  0.82213396  0.32875165  0.22632977  1  0.005648
  H  H11  1  0.85786850  0.94108623  0.09806556  1  0.002160
  H  H12  1  0.10254800  0.40387392  0.47255930  1  0.021386
  H  H13  1  0.08965623  0.54315984  0.42427975  1  0.041548
  H  H14  1  0.97876835  0.51334080  0.67792770  1  0.037280
  H  H15  1  0.83209870  0.88257410  0.74684660  1  0.045811
  H  H16  1  0.91397480  0.61897033  0.73588640  1  0.040713
  H  H17  1  0.83988345  0.74537940  0.79799860  1  0.043509
  H  H18  1  0.94419724  0.80676895  0.48719930  1  0.039893
  H  H19  1  0.02558756  0.68734103  0.42617310  1  0.045271
  H  H20  1  0.51968753  0.92545307  0.52170897  1  0.042735
  H  H21  1  0.37878183  0.89323944  0.54558665  1  0.039573
  H  H22  1  0.33668570  0.21471994  0.65289640  1  0.034437
  H  H23  1  0.44566154  0.30176070  0.68224390  1  0.035523
  H  H24  1  0.55909380  0.40122940  0.68378526  1  0.045968
  H  H25  1  0.63256854  0.02861116  0.52475035  1  0.040224
  H  H26  1  0.72869870  0.42485163  0.69733870  1  0.014550
  H  H27  1  0.23713040  0.94513905  0.57343185  1  0.033927
  C  C28  1  0.17589152  0.25150960  0.01940666  1  0.095887
  C  C29  1  0.09355617  0.02687820  0.02054905  1  -0.007188
  C  C30  1  0.12762868  0.18304060  0.04050611  1  -0.010731
  C  C31  1  0.78949404  0.19111088  0.20788494  1  -0.306960
  C  C32  1  0.83751410  0.26089296  0.19986777  1  0.145010
  C  C33  1  0.90667790  0.24445902  0.16034590  1  -0.247016
  C  C34  1  0.92926380  0.15664396  0.12650950  1  0.342173
  C  C35  1  0.87703650  0.08468818  0.13193966  1  -1.209542
  C  C36  1  0.00278473  0.13805056  0.08874519  1  0.010237
  C  C37  1  0.02234209  0.04793973  0.05795704  1  0.008450
  C  C38  1  0.96994910  0.97908247  0.06316158  1  0.035900
  C  C39  1  0.89740120  0.99695330  0.09763604  1  -0.176083
  C  C40  1  0.05751944  0.20524845  0.07976717  1  -0.038717
  C  C41  1  0.14493406  0.09366025  0.01111961  1  0.005594
  C  C42  1  0.80730027  0.10262010  0.17413466  1  0.316686
  C  C43  1  0.75944360  0.03297018  0.19524275  1  -0.065640
  C  C44  1  0.00355649  0.52439670  0.62486110  1  -0.022012
  C  C45  1  0.07433891  0.46031317  0.50878880  1  -0.032337
  C  C46  1  0.89774680  0.83096033  0.64368534  1  -0.093564
  C  C47  1  0.86698204  0.74813430  0.74341810  1  -0.041032
  C  C48  1  0.91021410  0.67541380  0.70668924  1  -0.026614
  C  C49  1  0.02905250  0.36503994  0.59148210  1  0.084161
  C  C50  1  0.90595940  0.91926570  0.62653870  1  0.233021
  C  C51  1  0.06597078  0.53907530  0.48081937  1  -0.049777
  C  C52  1  0.04178894  0.45265590  0.57952946  1  -0.036758
  C  C53  1  0.94584750  0.67709620  0.63492440  1  -0.009171
  C  C54  1  0.86156100  0.82552260  0.71310650  1  0.006204
  C  C55  1  0.93510360  0.75474120  0.60030840  1  0.043178
  C  C56  1  0.99103440  0.60418123  0.59562200  1  0.006973
  C  C57  1  0.02230799  0.60987060  0.52154080  1  0.015450
  C  C58  1  0.00563920  0.68413484  0.48521600  1  -0.093811
  C  C59  1  0.96064760  0.75411130  0.52230906  1  -0.053170
  C  C60  1  0.18942669  0.11482384  0.60851300  1  0.379820
  C  C61  1  0.37250805  0.96385110  0.57104725  1  -0.027883
  C  C62  1  0.28092860  0.08400638  0.61679830  1  -0.127297
  C  C63  1  0.64161580  0.29980505  0.63362240  1  0.041217
  C  C64  1  0.56629133  0.33047560  0.66013960  1  -0.056526
  C  C65  1  0.49952286  0.27184018  0.65742400  1  -0.015475
  C  C66  1  0.74418920  0.17181258  0.60981584  1  0.415754
  C  C67  1  0.50293577  0.17937134  0.62287986  1  -0.023009
  C  C68  1  0.57954310  0.14690019  0.59544760  1  0.074722
  C  C69  1  0.43247148  0.11806297  0.61444060  1  0.002223
  C  C70  1  0.44097373  0.02552694  0.58066666  1  -0.010951
  C  C71  1  0.51479060  0.99551094  0.55126930  1  -0.022629
  C  C72  1  0.58107036  0.05530894  0.55540380  1  -0.073399
  C  C73  1  0.35123210  0.14569421  0.63337827  1  0.011004
  C  C74  1  0.29233837  0.99310890  0.58776740  1  -0.025169
  C  C75  1  0.65267120  0.20660616  0.60754150  1  -0.142875
  C  C76  1  0.70706606  0.36889806  0.63737434  1  0.103254
  O  O77  1  0.96828717  0.14208233  0.60826670  1  -0.555807
  O  O78  1  0.15216112  0.25026393  0.93029654  1  -0.255460
  O  O79  1  0.23878300  0.30506690  0.08958270  1  -0.172921
  O  O80  1  0.69582010  0.97992224  0.12546031  1  -0.293458
  O  O81  1  0.78224340  0.03462477  0.28439876  1  -0.194855
  O  O82  1  0.97493243  0.30964390  0.52349030  1  -0.309441
  O  O83  1  0.85331630  0.98079926  0.64760005  1  -0.215906
  O  O84  1  0.06742358  0.34512883  0.66870326  1  -0.319590
  O  O85  1  0.97202060  0.93682283  0.59984183  1  -0.331791
  O  O86  1  0.73137474  0.36794457  0.57087850  1  -0.221811
  O  O87  1  0.12888184  0.09241794  0.52948360  1  -0.772480
  O  O88  1  0.80242950  0.21881007  0.59540450  1  -0.701036
  O  O89  1  0.17081682  0.16639039  0.67639107  1  -0.454782
  O  O90  1  0.76783600  0.09885486  0.63588580  1  -0.435939
