# generated using pymatgen
data_Zn2H14C22Br3N2Cl(O4F)2
_symmetry_space_group_name_H-M   'P 1'
_cell_length_a   10.03365000
_cell_length_b   10.71546000
_cell_length_c   15.56422000
_cell_angle_alpha   90.75903000
_cell_angle_beta   90.89001000
_cell_angle_gamma   88.65398000
_symmetry_Int_Tables_number   1
_chemical_formula_structural   Zn2H14C22Br3N2Cl(O4F)2
_chemical_formula_sum   'Zn2 H14 C22 Br3 N2 Cl1 O8 F2'
_cell_volume   1672.58735030
_cell_formula_units_Z   1
loop_
 _symmetry_equiv_pos_site_id
 _symmetry_equiv_pos_as_xyz
  1  'x, y, z'
loop_
 _atom_site_type_symbol
 _atom_site_label
 _atom_site_symmetry_multiplicity
 _atom_site_fract_x
 _atom_site_fract_y
 _atom_site_fract_z
 _atom_site_occupancy
  _atom_site_charge
  Zn  Zn0  1  0.55256100  0.79382735  0.30644572  1  1.288205
  Zn  Zn1  1  0.50235290  0.52002186  0.26962134  1  1.254757
  H  H2  1  0.37602812  0.51869520  0.85375730  1  0.046762
  H  H3  1  0.47976294  0.85165435  0.71378450  1  0.088817
  H  H4  1  0.34430510  0.74571970  0.71020460  1  0.067690
  H  H5  1  0.33806995  0.74955773  0.85654300  1  0.065912
  H  H6  1  0.47485590  0.85356720  0.86073180  1  0.084570
  H  H7  1  0.55724690  0.44979912  0.71395470  1  0.086997
  H  H8  1  0.74894583  0.59210970  0.72245310  1  0.051727
  H  H9  1  0.74313720  0.59500450  0.86663260  1  0.068935
  H  H10  1  0.38946587  0.50963897  0.70861065  1  0.076542
  H  H11  1  0.54950154  0.26278207  0.34017333  1  0.116730
  H  H12  1  0.63845280  0.14220466  0.23095341  1  0.079190
  H  H13  1  0.15735766  0.47011217  0.26909912  1  0.103511
  H  H14  1  0.90597060  0.47109100  0.25507605  1  0.028779
  H  H15  1  0.92946410  0.71958643  0.33559242  1  0.152331
  C  C16  1  0.54338175  0.64014920  0.44598022  1  0.349270
  C  C17  1  0.48222047  0.52846300  0.83571450  1  0.060458
  C  C18  1  0.53354270  0.65478146  0.87228110  1  -0.018107
  C  C19  1  0.51203400  0.66685563  0.13060284  1  0.382320
  C  C20  1  0.67972640  0.67433930  0.84320490  1  0.030539
  C  C21  1  0.49021465  0.52720410  0.73663986  1  -0.113047
  C  C22  1  0.44667014  0.75965820  0.73671544  1  -0.071449
  C  C23  1  0.44268793  0.76115197  0.83571154  1  -0.060561
  C  C24  1  0.51824754  0.65958405  0.04084086  1  -0.091113
  C  C25  1  0.68454670  0.67292810  0.74272746  1  0.076905
  C  C26  1  0.54171610  0.65350260  0.70489120  1  0.011590
  C  C27  1  0.52495060  0.65616536  0.96479920  1  0.095461
  C  C28  1  0.54267270  0.65066063  0.61215730  1  0.080037
  C  C29  1  0.54283060  0.64675015  0.53593200  1  -0.088442
  C  C30  1  0.36355254  0.37214017  0.32986757  1  0.482889
  C  C31  1  0.69833210  0.94551945  0.24388537  1  0.367372
  C  C32  1  0.47654200  0.04102244  0.27813230  1  0.073718
  C  C33  1  0.60071886  0.05084710  0.24548687  1  -0.142347
  C  C34  1  0.44356436  0.25674415  0.32813132  1  -0.346413
  C  C35  1  0.39175496  0.15050146  0.29885066  1  0.392413
  C  C36  1  0.10378639  0.55907890  0.27278486  1  0.018538
  C  C37  1  0.95408140  0.55641747  0.27528706  1  0.075819
  Br  Br38  1  0.57715607  0.38298270  0.88360953  1  -0.204877
  Br  Br39  1  0.75874510  0.82142866  0.89923990  1  -0.146777
  Br  Br40  1  0.39154616  0.88987050  0.30604710  1  -0.465922
  N  N41  1  0.17171255  0.66030140  0.27214518  1  0.037272
  N  N42  1  0.88124440  0.64737250  0.30528235  1  -0.157654
  Cl  Cl43  1  0.76041780  0.80767150  0.69772893  1  -0.267293
  O  O44  1  0.52158590  0.53276590  0.40962014  1  -0.278078
  O  O45  1  0.56728540  0.74126600  0.40441734  1  -0.533976
  O  O46  1  0.48760190  0.56580390  0.17213023  1  -0.585215
  O  O47  1  0.53330140  0.77430390  0.16692734  1  -0.296937
  O  O48  1  0.24053286  0.37152710  0.30795640  1  -0.257625
  O  O49  1  0.42666665  0.47184113  0.33905464  1  -0.629336
  O  O50  1  0.65328270  0.83624900  0.24471211  1  -0.549736
  O  O51  1  0.82211983  0.96602875  0.25791574  1  -0.179548
  F  F52  1  0.25756827  0.13708948  0.29600830  1  -0.395731
  F  F53  1  0.10423943  0.76617014  0.25427460  1  -0.315879
