# generated using pymatgen
data_Zn2H9C20Br5(NO4)2
_symmetry_space_group_name_H-M   'P 1'
_cell_length_a   10.29158000
_cell_length_b   10.71401000
_cell_length_c   12.96037000
_cell_angle_alpha   89.99908000
_cell_angle_beta   90.48871000
_cell_angle_gamma   91.24580000
_symmetry_Int_Tables_number   1
_chemical_formula_structural   Zn2H9C20Br5(NO4)2
_chemical_formula_sum   'Zn2 H9 C20 Br5 N2 O8'
_cell_volume   1428.67362756
_cell_formula_units_Z   1
loop_
 _symmetry_equiv_pos_site_id
 _symmetry_equiv_pos_as_xyz
  1  'x, y, z'
loop_
 _atom_site_type_symbol
 _atom_site_label
 _atom_site_symmetry_multiplicity
 _atom_site_fract_x
 _atom_site_fract_y
 _atom_site_fract_z
 _atom_site_occupancy
  _atom_site_charge
  Zn  Zn0  1  0.30295023  0.02328777  0.40661526  1  1.635075
  Zn  Zn1  1  0.17769186  0.76005160  0.41178040  1  1.615098
  H  H2  1  0.01729702  0.36908934  0.35367945  1  0.044676
  H  H3  1  0.25643405  0.52382404  0.42769390  1  0.134969
  H  H4  1  0.37042868  0.36210513  0.41215050  1  0.179115
  H  H5  1  0.09405588  0.79021680  0.75123006  1  0.070236
  H  H6  1  0.44713095  0.06647611  0.89284050  1  0.059289
  H  H7  1  0.09228371  0.71080710  0.10550976  1  0.072818
  H  H8  1  0.40309376  0.98293950  0.06210446  1  0.065880
  H  H9  1  0.39907300  0.06840885  0.70777136  1  0.082780
  H  H10  1  0.04927835  0.70779926  0.91993420  1  0.059726
  C  C11  1  0.11358297  0.38675350  0.38625515  1  0.079548
  C  C12  1  0.16543189  0.50201166  0.38822165  1  -0.429589
  C  C13  1  0.18095711  0.28153595  0.43146150  1  0.214247
  C  C14  1  0.31182320  0.28338182  0.43857940  1  -0.487542
  C  C15  1  0.09739681  0.60545003  0.34474432  1  0.926511
  C  C16  1  0.38405060  0.17855807  0.47495326  1  0.967472
  C  C17  1  0.66070366  0.86612546  0.40839880  1  0.140798
  C  C18  1  0.79603636  0.88456595  0.45693347  1  0.147217
  C  C19  1  0.26824635  0.86022115  0.20407414  1  0.220256
  C  C20  1  0.29920280  0.92555530  0.92652184  1  0.018837
  C  C21  1  0.22063848  0.92070824  0.60942410  1  0.192925
  C  C22  1  0.24382338  0.92865770  0.71821140  1  -0.004637
  C  C23  1  0.24913692  0.84901340  0.09509408  1  -0.030672
  C  C24  1  0.12622066  0.76824343  0.95045960  1  -0.047891
  C  C25  1  0.15135020  0.76927376  0.05537510  1  0.000672
  C  C26  1  0.32556650  0.92361313  0.03072107  1  -0.021163
  C  C27  1  0.19840246  0.84755880  0.88625216  1  0.031774
  C  C28  1  0.17118418  0.85020024  0.78231114  1  -0.035081
  C  C29  1  0.34217834  0.00783110  0.75777780  1  -0.012560
  C  C30  1  0.37027076  0.00593710  0.86234110  1  -0.034798
  Br  Br31  1  0.07037027  0.14581820  0.47859338  1  -0.296284
  Br  Br32  1  0.80583316  0.99976630  0.56906927  1  -0.139759
  Br  Br33  1  0.58492506  0.70121557  0.41564882  1  -0.236078
  Br  Br34  1  0.89215654  0.69642170  0.33233398  1  -0.041963
  Br  Br35  1  0.66793360  0.11709166  0.36980355  1  -0.126243
  N  N36  1  0.58361393  0.95970136  0.38907670  1  -0.089881
  N  N37  1  0.90142310  0.82417090  0.43238413  1  -0.086638
  O  O38  1  0.14698032  0.71426220  0.35668236  1  -1.565719
  O  O39  1  0.98666966  0.58784780  0.30135563  1  -0.346080
  O  O40  1  0.49712312  0.19608353  0.51495546  1  -0.341548
  O  O41  1  0.33681247  0.06966924  0.45962860  1  -1.599781
  O  O42  1  0.32200146  0.96182810  0.23955035  1  -0.373456
  O  O43  1  0.22937588  0.76940520  0.26193523  1  -0.136736
  O  O44  1  0.25835058  0.01220465  0.55157816  1  -0.100776
  O  O45  1  0.16572501  0.81978180  0.57396310  1  -0.375046
