# generated using pymatgen
data_ZnCu2H65C85S3N8O25F2
_symmetry_space_group_name_H-M   'P 1'
_cell_length_a   9.13965000
_cell_length_b   18.46363000
_cell_length_c   24.60342000
_cell_angle_alpha   91.95098000
_cell_angle_beta   92.78620000
_cell_angle_gamma   90.36397000
_symmetry_Int_Tables_number   1
_chemical_formula_structural   ZnCu2H65C85S3N8O25F2
_chemical_formula_sum   'Zn2 Cu4 H130 C170 S6 N16 O50 F4'
_cell_volume   4144.40932428
_cell_formula_units_Z   2
loop_
 _symmetry_equiv_pos_site_id
 _symmetry_equiv_pos_as_xyz
  1  'x, y, z'
loop_
 _atom_site_type_symbol
 _atom_site_label
 _atom_site_symmetry_multiplicity
 _atom_site_fract_x
 _atom_site_fract_y
 _atom_site_fract_z
 _atom_site_occupancy
  _atom_site_charge
  Zn  Zn0  1  0.40296534  0.17055184  0.32642448  1  1.616475
  Zn  Zn1  1  0.21933067  0.07226307  0.39304290  1  1.233116
  Cu  Cu2  1  0.48395935  0.41916620  0.04785981  1  86.621948
  Cu  Cu3  1  0.18189782  0.41464925  0.03831318  1  2.624465
  Cu  Cu4  1  0.47702494  0.74513470  0.70600075  1  268.168823
  Cu  Cu5  1  0.17850867  0.73517346  0.69436960  1  -2.230768
  H  H6  1  0.83976530  0.34436458  0.88716350  1  -0.870692
  H  H7  1  0.95371336  0.72525090  0.76495403  1  -3.651383
  H  H8  1  0.17327009  0.65267736  0.02521467  1  -0.413114
  H  H9  1  0.42576408  0.74122834  0.98553556  1  -0.046142
  H  H10  1  0.94015190  0.51198510  0.78063730  1  0.053457
  H  H11  1  0.93857986  0.53516495  0.70959110  1  0.350159
  H  H12  1  0.02205259  0.45207316  0.73145866  1  0.219907
  H  H13  1  0.21283117  0.54442620  0.71583560  1  7.458403
  H  H14  1  0.21379638  0.52076030  0.78599060  1  -0.124264
  H  H15  1  0.06621739  0.63251734  0.80722225  1  0.472245
  H  H16  1  0.05452836  0.65440255  0.73992350  1  0.393419
  H  H17  1  0.79538673  0.51661800  0.88622260  1  0.949423
  H  H18  1  0.80480950  0.42149007  0.90186290  1  0.445026
  H  H19  1  0.76292086  0.44795412  0.83299506  1  1.475915
  H  H20  1  0.53764930  0.40721706  0.87627894  1  -0.761785
  H  H21  1  0.52917920  0.50045290  0.85892123  1  -0.644198
  H  H22  1  0.59405810  0.53977790  0.95546130  1  -3.976143
  H  H23  1  0.63037470  0.45135418  0.97329766  1  -40.040318
  H  H24  1  0.95927405  0.73364216  0.64159733  1  -6.492125
  H  H25  1  0.08704269  0.78658766  0.60518720  1  9.387409
  H  H26  1  0.03530648  0.69623655  0.58056730  1  -1.126290
  H  H27  1  0.28002322  0.68997854  0.62577250  1  0.128867
  H  H28  1  0.15320784  0.64455410  0.66283130  1  0.120218
  H  H29  1  0.12692279  0.76347834  0.72343290  1  -2.253543
  H  H30  1  0.26104500  0.80365384  0.68980370  1  -3.069929
  H  H31  1  0.69898230  0.28446210  0.03199363  1  0.959394
  H  H32  1  0.53743580  0.23087646  0.04277289  1  -0.595424
  H  H33  1  0.63908136  0.21460073  0.98260300  1  -1.434809
  H  H34  1  0.41642170  0.28411022  0.95768887  1  -8.290625
  H  H35  1  0.57747730  0.33630824  0.95060754  1  -17.880760
  H  H36  1  0.53713983  0.40251094  0.04072070  1  -59.713123
  H  H37  1  0.40186490  0.34294385  0.05374336  1  -48.451096
  H  H38  1  0.63286614  0.81692684  0.09152221  1  -0.059299
  H  H39  1  0.73609500  0.98191470  0.35216490  1  1.035321
  H  H40  1  0.97304810  0.97128826  0.02946628  1  0.037932
  H  H41  1  0.84972070  0.90929820  0.99283546  1  0.053457
  H  H42  1  0.80108696  0.00242364  0.99979160  1  0.045672
  H  H43  1  0.66087370  0.93851566  0.06455314  1  0.029638
  H  H44  1  0.79974600  0.99008500  0.10261055  1  0.011088
  H  H45  1  0.96418250  0.91664710  0.33424133  1  -2.169690
  H  H46  1  0.04238892  0.84792800  0.19726346  1  -3.118452
  H  H47  1  0.13042533  0.88890690  0.25849342  1  2.064972
  H  H48  1  0.19870830  0.80537057  0.23015825  1  -5.541349
  H  H49  1  0.05545116  0.78142214  0.31101670  1  -23.604980
  H  H50  1  0.97274923  0.74019100  0.25011566  1  -2.291341
  H  H51  1  0.83551400  0.95627940  0.27293193  1  0.215718
  H  H52  1  0.96116084  0.97031500  0.33171010  1  0.482424
  H  H53  1  0.94522120  0.03798139  0.28070125  1  0.026621
  H  H54  1  0.17282502  0.96602360  0.27162440  1  -0.995266
  H  H55  1  0.04997782  0.95490590  0.21266240  1  -0.802203
  H  H56  1  0.95945305  0.83589536  0.24939640  1  -6.658635
  H  H57  1  0.07529275  0.85311250  0.30799390  1  -1.106078
  H  H58  1  0.65846920  0.94559515  0.05715321  1  0.009015
  H  H59  1  0.58081030  0.03251278  0.07434319  1  -0.037688
  H  H60  1  0.72534230  0.99617875  0.11771785  1  0.096223
  H  H61  1  0.41149858  0.93485050  0.09815330  1  0.063443
  H  H62  1  0.48167482  0.98298790  0.15823668  1  0.083896
  H  H63  1  0.66298676  0.89075500  0.17596084  1  0.165295
  H  H64  1  0.62014425  0.83955884  0.11702828  1  0.051871
  H  H65  1  0.05579944  0.92060980  0.11699472  1  -0.092381
  H  H66  1  0.71985006  0.76152900  0.23054776  1  -1.850271
  H  H67  1  0.98297790  0.70652115  0.17466186  1  0.301968
  H  H68  1  0.50155985  0.94126344  0.30691352  1  2.135784
  H  H69  1  0.72878210  0.70823760  0.13585688  1  -0.332121
  H  H70  1  0.78370310  0.41285870  0.15578645  1  1.841630
  H  H71  1  0.18994276  0.15072072  0.37509525  1  -0.165138
  H  H72  1  0.37458410  0.20783110  0.32014000  1  -1.019664
  H  H73  1  0.63049996  0.35757360  0.22313170  1  -1.007751
  H  H74  1  0.54235990  0.21789840  0.17093363  1  0.101779
  H  H75  1  0.54808927  0.09188527  0.17183156  1  0.031560
  H  H76  1  0.36701527  0.08836856  0.19677530  1  0.046008
  H  H77  1  0.52048874  0.11932294  0.24169709  1  0.057728
  H  H78  1  0.21712166  0.33448568  0.27482823  1  0.165741
  H  H79  1  0.19826710  0.45964265  0.26876312  1  -0.091354
  H  H80  1  0.27931234  0.45697054  0.20375912  1  -0.568014
  H  H81  1  0.39201185  0.44272316  0.26543275  1  -0.148410
  H  H82  1  0.65347400  0.41269120  0.49569073  1  0.040387
  H  H83  1  0.86673530  0.36593310  0.54879576  1  0.010106
  H  H84  1  0.83346350  0.30951086  0.63736320  1  0.041477
  H  H85  1  0.58467600  0.29716580  0.67195310  1  0.055155
  H  H86  1  0.36954972  0.34102646  0.61876240  1  0.038396
  H  H87  1  0.98514830  0.45616624  0.56997544  1  -0.080389
  H  H88  1  0.77017766  0.50023580  0.51636064  1  0.054372
  H  H89  1  0.79970890  0.55189550  0.42605087  1  0.026157
  H  H90  1  0.04708391  0.56361675  0.39028364  1  -0.014610
  H  H91  1  0.26468320  0.52461064  0.44444582  1  0.067816
  H  H92  1  0.31907190  0.95680517  0.68149030  1  -2.821755
  H  H93  1  0.15930289  0.92807190  0.59944060  1  0.694058
  H  H94  1  0.89918303  0.89388317  0.60856430  1  0.231018
  H  H95  1  0.79707180  0.89048060  0.70001880  1  5.003302
  H  H96  1  0.95437440  0.92091720  0.78239524  1  0.998543
  H  H97  1  0.37407908  0.80734120  0.91446700  1  0.218350
  H  H98  1  0.54335713  0.71408430  0.94981474  1  -0.403292
  H  H99  1  0.80603200  0.71787820  0.92920070  1  0.156890
  H  H100  1  0.90085970  0.81654810  0.87437534  1  0.004654
  H  H101  1  0.73380010  0.91130424  0.83993584  1  0.835932
  H  H102  1  0.27014634  0.19377515  0.06034315  1  -0.341659
  H  H103  1  0.09194925  0.21783374  0.13118040  1  -0.054085
  H  H104  1  0.83310926  0.24436690  0.10485053  1  0.100191
  H  H105  1  0.75094410  0.24473470  0.00729465  1  1.002157
  H  H106  1  0.92688760  0.21889919  0.93597560  1  0.165423
  H  H107  1  0.36353764  0.34483880  0.83239690  1  -0.876338
  H  H108  1  0.53237860  0.44263220  0.80829830  1  0.816528
  H  H109  1  0.78886837  0.44567272  0.84604436  1  -1.659726
  H  H110  1  0.87829320  0.34935176  0.90686120  1  8.130132
  H  H111  1  0.71193814  0.25013040  0.93020950  1  -1.641869
  H  H112  1  0.36125758  0.95061270  0.65545267  1  2.740537
  H  H113  1  0.22636814  0.64567137  0.57532120  1  0.223715
  H  H114  1  0.06805188  0.55139047  0.52888924  1  0.039062
  H  H115  1  0.79942470  0.56837106  0.52000165  1  0.191969
  H  H116  1  0.68942620  0.68149940  0.55586874  1  1.190975
  H  H117  1  0.84609413  0.77652510  0.60201406  1  2.701631
  H  H118  1  0.79489887  0.08786082  0.45634730  1  0.075741
  H  H119  1  0.95174890  0.18280292  0.50249760  1  0.012171
  H  H120  1  0.84197920  0.29598892  0.53836520  1  0.029859
  H  H121  1  0.57338200  0.31311214  0.52947010  1  0.055530
  H  H122  1  0.41488993  0.21890306  0.48304540  1  0.025257
  H  H123  1  0.95120870  0.88652110  0.52225760  1  0.096675
  H  H124  1  0.86610570  0.86711370  0.42586416  1  -0.084276
  H  H125  1  0.99827330  0.78260160  0.36539860  1  -2.333314
  H  H126  1  0.21635899  0.71724874  0.40145830  1  0.072728
  H  H127  1  0.30323756  0.73639023  0.49764928  1  0.440579
  H  H128  1  0.33752707  0.12828755  0.56066453  1  0.097472
  H  H129  1  0.42380940  0.14724064  0.65694440  1  0.009666
  H  H130  1  0.64146400  0.08169556  0.69314920  1  0.350469
  H  H131  1  0.77388567  0.99722666  0.63273895  1  0.916578
  H  H132  1  0.68940740  0.97799980  0.53626730  1  0.974884
  H  H133  1  0.44549304  0.90741570  0.24943604  1  1.255447
  H  H134  1  0.45504230  0.97048354  0.78697140  1  -0.171261
  H  H135  1  0.27942678  0.91396260  0.40305212  1  -0.084631
  C  C136  1  0.55869883  0.72375906  0.79742795  1  8.989261
  C  C137  1  0.09539823  0.46030440  0.96930180  1  1.116193
  C  C138  1  0.48214010  0.69633330  0.84187424  1  -0.259032
  C  C139  1  0.15166020  0.52612174  0.95040490  1  -3.574856
  C  C140  1  0.34973902  0.65784090  0.83115125  1  -1.684803
  C  C141  1  0.30079475  0.53061280  0.93853650  1  3.961159
  C  C142  1  0.27719602  0.66749424  0.78019330  1  8.897302
  C  C143  1  0.39463240  0.47623780  0.95861650  1  -10.966642
  C  C144  1  0.33709654  0.71636000  0.74223274  1  -24.311663
  C  C145  1  0.33759248  0.41993937  0.99122130  1  3.702592
  C  C146  1  0.12916899  0.62882260  0.76997430  1  -2.716504
  C  C147  1  0.15025194  0.54873340  0.75338470  1  1.518129
  C  C148  1  0.00328121  0.50975810  0.74315520  1  -1.152722
  C  C149  1  0.55691030  0.48309770  0.94658136  1  -5.519338
  C  C150  1  0.58384040  0.46196023  0.88682740  1  4.260929
  C  C151  1  0.74710240  0.46207312  0.87650290  1  -1.459041
  C  C152  1  0.22741434  0.74948835  0.70179950  1  6.210415
  C  C153  1  0.18597569  0.69941790  0.65153843  1  -1.012241
  C  C154  1  0.05914279  0.73113084  0.61763390  1  2.074987
  C  C155  1  0.44711290  0.37017253  0.01980209  1  201.399582
  C  C156  1  0.50813460  0.31214452  0.98082190  1  44.192852
  C  C157  1  0.60147000  0.25715256  0.01160622  1  -9.746873
  C  C158  1  0.62743187  0.72229236  0.72438090  1  125.900604
  C  C159  1  0.03379726  0.75724584  0.67726710  1  7.527817
  C  C160  1  0.77011997  0.73466116  0.70772840  1  -44.774544
  C  C161  1  0.89119710  0.74483970  0.69399077  1  25.364855
  C  C162  1  0.31334677  0.78859526  0.09081189  1  -0.019799
  C  C163  1  0.33515626  0.78209070  0.31397843  1  0.038071
  C  C164  1  0.83872384  0.87606190  0.09995747  1  -0.555822
  C  C165  1  0.85801655  0.83339790  0.28210893  1  -12.740277
  C  C166  1  0.98434514  0.87414910  0.12069678  1  1.548010
  C  C167  1  0.32874440  0.81244330  0.26007247  1  0.241120
  C  C168  1  0.72376080  0.80913025  0.25760832  1  6.078299
  C  C169  1  0.03620320  0.81373830  0.14852239  1  0.496878
  C  C170  1  0.59515303  0.84863840  0.26546720  1  -2.748950
  C  C171  1  0.94400340  0.75352140  0.15329765  1  -0.307439
  C  C172  1  0.59990865  0.91032690  0.30044854  1  2.775584
  C  C173  1  0.79991275  0.75461400  0.13180088  1  0.090058
  C  C174  1  0.73259604  0.93376010  0.32576478  1  -3.643072
  C  C175  1  0.74630576  0.81617390  0.10632377  1  0.097250
  C  C176  1  0.86145940  0.89632580  0.31588015  1  6.473721
  C  C177  1  0.19218846  0.82528275  0.23347446  1  3.708360
  C  C178  1  0.31494570  0.81129090  0.14863853  1  0.455252
  C  C179  1  0.44801277  0.83502000  0.17670369  1  -0.435349
  C  C180  1  0.78091860  0.94315135  0.07362276  1  0.112139
  C  C181  1  0.85611814  0.95729270  0.02087482  1  -0.036946
  C  C182  1  0.99733156  0.79309756  0.27167466  1  41.059772
  C  C183  1  0.09802473  0.83681580  0.23724343  1  12.490275
  C  C184  1  0.06645136  0.86025774  0.26363698  1  -12.079135
  C  C185  1  0.06570797  0.94249310  0.25627214  1  2.986776
  C  C186  1  0.94405920  0.97881270  0.28739715  1  -0.508848
  C  C187  1  0.56919500  0.87460930  0.14802712  1  0.010229
  C  C188  1  0.51161620  0.94536227  0.12437593  1  -0.087595
  C  C189  1  0.45736550  0.82929400  0.23361920  1  0.544759
  C  C190  1  0.62648976  0.98201954  0.09135722  1  -0.024558
  C  C191  1  0.18311551  0.81590056  0.17672620  1  -1.051399
  C  C192  1  0.67215484  0.39699990  0.14415485  1  -8.854814
  C  C193  1  0.16532187  0.15885139  0.33231437  1  -0.162072
  C  C194  1  0.58521515  0.36603750  0.18235712  1  3.863306
  C  C195  1  0.26982180  0.19106016  0.30119480  1  0.123389
  C  C196  1  0.44076410  0.34559795  0.16762944  1  -3.191294
  C  C197  1  0.23821740  0.20183927  0.24585037  1  -0.026961
  C  C198  1  0.38450482  0.35755873  0.11428872  1  2.961721
  C  C199  1  0.10057948  0.17972320  0.22225058  1  0.155715
  C  C200  1  0.47617170  0.38974157  0.07705024  1  24.238132
  C  C201  1  0.99800354  0.14768331  0.25549382  1  -0.140264
  C  C202  1  0.34954990  0.31114912  0.20851886  1  0.952606
  C  C203  1  0.34985430  0.23747645  0.21311610  1  -0.231616
  C  C204  1  0.47173810  0.11939675  0.19944190  1  -0.100974
  C  C205  1  0.28296617  0.43271360  0.24448502  1  0.112019
  C  C206  1  0.92684560  0.05657108  0.40898347  1  0.065116
  C  C207  1  0.70636470  0.18876678  0.31253448  1  0.411585
  C  C208  1  0.84945995  0.10296990  0.37513125  1  -0.000610
  C  C209  1  0.78377060  0.14235586  0.34639558  1  -0.150734
  C  C210  1  0.29471618  0.34205058  0.36414555  1  0.257916
  C  C211  1  0.34606420  0.52781814  0.70001537  1  1.725462
  C  C212  1  0.31686404  0.50449926  0.64482784  1  -1.491737
  C  C213  1  0.32305306  0.36460382  0.41947514  1  -0.074654
  C  C214  1  0.27080190  0.45801342  0.54285550  1  -0.291506
  C  C215  1  0.36713055  0.41017290  0.52165640  1  0.093985
  C  C216  1  0.34556928  0.38417533  0.46608672  1  0.007816
  C  C217  1  0.29333863  0.48437452  0.59835577  1  0.667758
  C  C218  1  0.49565545  0.38182035  0.55376065  1  -0.034300
  C  C219  1  0.63695620  0.38736886  0.53401990  1  -0.047292
  C  C220  1  0.75814176  0.36117607  0.56407577  1  -0.033639
  C  C221  1  0.73945844  0.32925346  0.61398380  1  -0.036156
  C  C222  1  0.59925276  0.32237990  0.63351536  1  -0.024432
  C  C223  1  0.47765090  0.34782583  0.60338760  1  -0.036201
  C  C224  1  0.14118986  0.48557750  0.51079890  1  0.046484
  C  C225  1  0.00040942  0.48003015  0.53101337  1  0.110918
  C  C226  1  0.87809026  0.50434970  0.50060200  1  -0.156446
  C  C227  1  0.89475685  0.53389680  0.44974450  1  -0.115250
  C  C228  1  0.03422658  0.54063857  0.42964600  1  -0.014302
  C  C229  1  0.15719223  0.51771980  0.46029532  1  -0.043317
  C  C230  1  0.05076170  0.40107164  0.05302228  1  0.000652
  C  C231  1  0.77397090  0.42268455  0.03968051  1  -12.285161
  C  C232  1  0.90099066  0.41272790  0.04583317  1  5.084317
  C  C233  1  0.62419873  0.43433430  0.03248705  1  26.009563
  C  C234  1  0.31295502  0.31869897  0.96531640  1  46.875278
  C  C235  1  0.42942405  0.16465735  0.87333220  1  -3.312464
  C  C236  1  0.23878554  0.02366477  0.81368920  1  16.836388
  C  C237  1  0.43530740  0.98911476  0.87759770  1  4.445157
  C  C238  1  0.35045543  0.83231240  0.77901036  1  -0.898978
  C  C239  1  0.22330162  0.12466423  0.92388505  1  -2.691329
  C  C240  1  0.42423600  0.23318700  0.89882310  1  7.303076
  C  C241  1  0.24407302  0.95592360  0.78698770  1  -32.606796
  C  C242  1  0.44050816  0.92056626  0.85213660  1  -4.894942
  C  C243  1  0.21801090  0.19237989  0.95062554  1  5.730710
  C  C244  1  0.31846532  0.24724746  0.93793420  1  -15.341926
  C  C245  1  0.34494670  0.90377665  0.80637306  1  11.757883
  C  C246  1  0.32894100  0.11103695  0.88572025  1  2.980801
  C  C247  1  0.33444673  0.04002175  0.85851806  1  -3.993646
  C  C248  1  0.52632403  0.29019650  0.88258970  1  -3.898009
  C  C249  1  0.47612846  0.34499916  0.84831360  1  2.935378
  C  C250  1  0.57115410  0.40057495  0.83486366  1  -2.694833
  C  C251  1  0.71590790  0.40222713  0.85607237  1  3.113640
  C  C252  1  0.76638650  0.34782094  0.89026433  1  -4.754626
  C  C253  1  0.67223390  0.29164493  0.90327895  1  4.824461
  C  C254  1  0.14751963  0.94157780  0.73770106  1  -19.416170
  C  C255  1  0.20488733  0.94318420  0.68583220  1  8.771337
  C  C256  1  0.11499633  0.92657435  0.63938580  1  -3.592263
  C  C257  1  0.96819735  0.90741515  0.64452300  1  2.712764
  C  C258  1  0.91056380  0.90565680  0.69608545  1  -0.207852
  C  C259  1  0.99962660  0.92311406  0.74260290  1  -2.432915
  C  C260  1  0.54238060  0.86630136  0.87515444  1  1.891144
  C  C261  1  0.48917803  0.81018615  0.90606890  1  -0.672218
  C  C262  1  0.58449750  0.75716305  0.92585160  1  1.216668
  C  C263  1  0.73271590  0.75936760  0.91430855  1  -0.044241
  C  C264  1  0.78622580  0.81509660  0.88349444  1  -0.234749
  C  C265  1  0.69162090  0.86874680  0.86420540  1  -0.459020
  C  C266  1  0.11067709  0.20395150  0.99316335  1  -1.807665
  C  C267  1  0.15670258  0.20404348  0.04845262  1  -1.577009
  C  C268  1  0.05634047  0.21801755  0.08858573  1  0.635204
  C  C269  1  0.91028020  0.23285510  0.07373738  1  -0.039788
  C  C270  1  0.86391544  0.23290671  0.01873469  1  -0.747818
  C  C271  1  0.96351700  0.21806167  0.97848140  1  0.662751
  C  C272  1  0.18540543  0.82498580  0.57438080  1  3.616544
  C  C273  1  0.37289320  0.97690320  0.46910635  1  0.265478
  C  C274  1  0.26789940  0.88770990  0.58931315  1  0.994255
  C  C275  1  0.33736628  0.96397220  0.41433448  1  0.076918
  C  C276  1  0.30344750  0.90060130  0.64409810  1  0.922903
  C  C277  1  0.37860927  0.01144540  0.37400480  1  -1.779378
  C  C278  1  0.26228980  0.85308690  0.68435323  1  5.765693
  C  C279  1  0.04650546  0.71554280  0.59604170  1  0.841227
  C  C280  1  0.10873885  0.65291154  0.57289350  1  0.491930
  C  C281  1  0.01959307  0.59973490  0.54614514  1  0.015731
  C  C282  1  0.86822830  0.60944410  0.54091126  1  -0.508435
  C  C283  1  0.80613726  0.67299104  0.56146810  1  1.275958
  C  C284  1  0.89492660  0.72627420  0.58822966  1  -1.282254
  C  C285  1  0.59460294  0.14894664  0.46232090  1  -0.020010
  C  C286  1  0.74614996  0.13813734  0.47013223  1  -0.049896
  C  C287  1  0.83505020  0.19138014  0.49689683  1  -0.016630
  C  C288  1  0.77308210  0.25495517  0.51745540  1  -0.035341
  C  C289  1  0.62174920  0.26474214  0.51222223  1  -0.024596
  C  C290  1  0.53250957  0.21160483  0.48547370  1  -0.045775
  C  C291  1  0.13255149  0.81239337  0.51680136  1  -1.187605
  C  C292  1  0.00936868  0.84936976  0.49616674  1  -0.417808
  C  C293  1  0.96109090  0.83850294  0.44168420  1  0.592281
  C  C294  1  0.03559743  0.79083770  0.40759350  1  1.501467
  C  C295  1  0.15852733  0.75397660  0.42792803  1  -0.852540
  C  C296  1  0.20723031  0.76474310  0.48236847  1  0.813077
  C  C297  1  0.50819266  0.05223429  0.54160860  1  0.587513
  C  C298  1  0.43340304  0.09987807  0.57600970  1  -0.273838
  C  C299  1  0.48176476  0.11054027  0.63049614  1  0.204943
  C  C300  1  0.60445600  0.07356560  0.65091390  1  0.022681
  C  C301  1  0.67909527  0.02592671  0.61685610  1  0.689646
  C  C302  1  0.63118124  0.01516807  0.56232584  1  -0.869979
  C  C303  1  0.49841762  0.08751523  0.44300434  1  0.020992
  C  C304  1  0.14257182  0.77701520  0.61536360  1  -14.395761
  C  C305  1  0.45546558  0.03960073  0.48401526  1  -0.271328
  S  S306  1  0.92013360  0.43309167  0.94027690  1  3.107288
  S  S307  1  0.75463170  0.72567100  0.80835560  1  -4.843624
  S  S308  1  0.04449832  0.60577446  0.95693190  1  8.843046
  S  S309  1  0.53405950  0.72551420  0.91008025  1  0.050881
  S  S310  1  0.33434036  0.97691470  0.30641204  1  2.176370
  S  S311  1  0.30725017  0.88754845  0.75182027  1  -1.000934
  N  N312  1  0.48352385  0.74007340  0.74832130  1  -26.057278
  N  N313  1  0.18656462  0.41196933  0.99631685  1  1.971402
  N  N314  1  0.28275940  0.60991424  0.86882820  1  0.247760
  N  N315  1  0.36321428  0.58708010  0.90705250  1  -0.823809
  N  N316  1  0.61776847  0.40816800  0.09269706  1  16.853243
  N  N317  1  0.03303242  0.13753626  0.30930080  1  0.082110
  N  N318  1  0.85878736  0.12375234  0.23262274  1  0.007361
  N  N319  1  0.41847607  0.40607730  0.02382608  1  -177.443832
  N  N320  1  0.44842154  0.19312154  0.18285675  1  -0.078326
  N  N321  1  0.25273330  0.35560170  0.23952347  1  -0.379861
  N  N322  1  0.23755856  0.33571002  0.09740976  1  0.771240
  N  N323  1  0.06527327  0.18909279  0.16533130  1  -0.007862
  N  N324  1  0.46008882  0.07416797  0.38795403  1  -0.017603
  N  N325  1  0.18093543  0.79032785  0.67041380  1  1.276943
  N  N326  1  0.33679363  0.92135710  0.50597490  1  0.258693
  N  N327  1  0.30399048  0.94327230  0.55245600  1  0.134367
  O  O328  1  0.81094170  0.42509916  0.98340285  1  -3.814825
  O  O329  1  0.86258590  0.48742786  0.90060294  1  -1.123705
  O  O330  1  0.93764210  0.35415506  0.90507543  1  -7.702720
  O  O331  1  0.80164850  0.79376346  0.83971610  1  1.387868
  O  O332  1  0.79862700  0.66201860  0.84178865  1  1.890898
  O  O333  1  0.84965670  0.72001094  0.75210640  1  7.933725
  O  O334  1  0.99249434  0.63086575  0.90200555  1  -6.168771
  O  O335  1  0.91315190  0.59149086  0.98958560  1  -2.037754
  O  O336  1  0.14478816  0.67203534  0.98919106  1  -1.032311
  O  O337  1  0.64350710  0.67423034  0.93468150  1  -0.617669
  O  O338  1  0.59943300  0.80040390  0.91110206  1  -0.937453
  O  O339  1  0.38655582  0.72901666  0.94808190  1  -0.285341
  O  O340  1  0.61078740  0.67361456  0.76069665  1  -37.679729
  O  O341  1  0.05030703  0.80561817  0.64069045  1  -2.446124
  O  O342  1  0.14010382  0.71851910  0.69815886  1  -1.322042
  O  O343  1  0.52099067  0.76071364  0.70322820  1  -346.064972
  O  O344  1  0.43446872  0.78257006  0.06753544  1  -0.375151
  O  O345  1  0.21687992  0.75944453  0.33353955  1  1.382959
  O  O346  1  0.19221973  0.77491540  0.06382575  1  -0.238782
  O  O347  1  0.45912900  0.76709914  0.33724920  1  -0.269943
  O  O348  1  0.84858850  0.06233781  0.20518471  1  -0.198325
  O  O349  1  0.75151205  0.16954112  0.22890190  1  -0.089483
  O  O350  1  0.30293536  0.44645205  0.01816494  1  19.360992
  O  O351  1  0.47092970  0.37443462  0.98109980  1  65.632790
  O  O352  1  0.21186902  0.29984906  0.05144998  1  3.711128
  O  O353  1  0.12813015  0.35405990  0.12669806  1  -0.439875
  O  O354  1  0.94025654  0.21648066  0.14942618  1  -0.209897
  O  O355  1  0.15621664  0.16838215  0.12895226  1  -0.193066
  O  O356  1  0.85516816  0.01177592  0.43604404  1  -0.377796
  O  O357  1  0.77804210  0.23356195  0.28547388  1  -0.210577
  O  O358  1  0.56670310  0.18473350  0.30985552  1  -0.504567
  O  O359  1  0.06650710  0.06060436  0.41166246  1  -0.493905
  O  O360  1  0.39391413  0.30530602  0.34010518  1  -0.181258
  O  O361  1  0.24710573  0.56480300  0.72402920  1  -10.251670
  O  O362  1  0.17100620  0.35839108  0.33988440  1  -0.227444
  O  O363  1  0.47001365  0.51171800  0.72425000  1  -0.494400
  O  O364  1  0.13670540  0.43637574  0.02257933  1  -6.369186
  O  O365  1  0.09393036  0.35577852  0.08965006  1  -0.831551
  O  O366  1  0.58105433  0.47962130  0.99583470  1  60.373264
  O  O367  1  0.53826370  0.39899460  0.06292997  1  -62.916008
  O  O368  1  0.43378493  0.35102075  0.98112260  1  -112.120079
  O  O369  1  0.22962487  0.79998640  0.76321070  1  1.551493
  O  O370  1  0.47601217  0.80332760  0.77133250  1  20.679274
  O  O371  1  0.18739764  0.34767950  0.97300080  1  -13.132586
  O  O372  1  0.20765680  0.92461280  0.30724960  1  -0.373177
  O  O373  1  0.29270804  0.03372323  0.26665390  1  -0.448934
  O  O374  1  0.47969097  0.93079270  0.28465733  1  -4.212896
  O  O375  1  0.17790316  0.92873580  0.77180886  1  30.474783
  O  O376  1  0.35022230  0.83079374  0.79144406  1  -5.423614
  O  O377  1  0.44916236  0.94595430  0.75048570  1  4.155747
  F  F378  1  0.53012127  0.15049994  0.83554790  1  0.199233
  F  F379  1  0.14275760  0.07434186  0.79538100  1  -3.270434
  F  F380  1  0.52612245  0.00586910  0.92172350  1  -1.963419
  F  F381  1  0.12780415  0.07139310  0.93583226  1  0.164949
