data_I
_chemical_name_common  'nh3_gradient_2.0_v2/cif/sample_4'
_cell_length_a  9.84044
_cell_length_b 10.73228
_cell_length_c 20.42972
_cell_angle_alpha 91.88879
_cell_angle_beta  94.44833
_cell_angle_gamma 86.21848
_space_group_name_H-M_alt      'P 1'


loop_
_space_group_symop_operation_xyz
  'x, y, z' 

loop_
_atom_site_label
_atom_site_fract_x
_atom_site_fract_y
_atom_site_fract_z
_atom_site_type_symbol
Zn0   0.2863693 0.41286644 0.45724156    Zn
Zn1    0.59503 0.404637 0.47183612    Zn
H2    0.533091 0.59052724 0.92085606     H
H3    0.3036111 0.57836634 0.9090999     H
H4    0.5300482 0.58818084 0.027357578     H
H5    0.30066642 0.577539 0.015583992     H
H6    0.54745036 0.22867969 0.02556169     H
H7    0.37182608 0.22057489 0.016633391     H
H8    0.55584633 0.23074731 0.9136491     H
H9    0.3764139 0.22094403 0.9045463     H
H10   0.1378384 0.59679055 0.089007735     H
H11   0.93466806 0.5262486 0.13580072     H
H12   0.8462671 0.32146612 0.1016947     H
H13   0.96246403 0.18672441 0.019561172     H
H14   0.16382092 0.25461835 0.9711599     H
H15   0.6794693 0.6189312 0.116260886     H
H16   0.8927531 0.5653247 0.1826961     H
H17   0.032553673 0.3715923 0.15800881     H
H18   0.9579413 0.23099208 0.06546998     H
H19   0.74709404 0.28211483 0.9976904     H
H20   0.08446674 0.31140915 0.821155     H
H21   0.8262795 0.35229185 0.85685784     H
C22   0.45813912 0.27816415 0.9274681     C
C23   0.45403036 0.27787697 0.0029248     C
C24   0.44493443 0.4127076 0.83002675     C
C25   0.432745 0.41158852 0.10273886     C
C26   0.43037045 0.41134414 0.16124403     C
C27   0.42753997 0.4116837 0.2306304     C
C28   0.45027807 0.4118478 0.701989     C
C29   0.5574122 0.48954546 0.012184024     C
C30   0.29880977 0.4773345 0.9995235     C
C31   0.30238104 0.47854817 0.92247486     C
C32   0.55958617 0.49194705 0.9351046     C
C33   0.44742918 0.4121878 0.7714526     C
C34   0.43574446 0.41302177 0.031121492     C
C35   0.4415847 0.4137755 0.90178514     C
C36   0.16925968 0.43154836 0.026272178     C
C37   0.10091743 0.5071895 0.07282567     C
C38   0.9854829 0.46745354 0.09986544     C
C39   0.9358118 0.35198388 0.08078241     C
C40   0.001524927 0.27601305 0.03462255     C
C41   0.11739162 0.31499097 0.007622242     C
C42   0.6940833 0.45486224 0.051362753     C
C43   0.739051 0.5341023 0.1040107     C
C44   0.8601031 0.50395966 0.14221251     C
C45   0.9387485 0.39469862 0.12842572     C
C46   0.89647126 0.31541255 0.0763706     C
C47   0.77517503 0.3447713 0.03817582     C
C48   0.17403415 0.43611932 0.88382566     C
C49   0.6999416 0.46463922 0.90926945     C
O50   0.5398243 0.40891156 0.26662016     O
O51   0.3127178 0.41527253 0.2560928     O
O52   0.5649789 0.40878466 0.6764671     O
O53   0.3380832 0.41513965 0.6659495     O
O54   0.066742696 0.49962872 0.88711625     O
O55   0.17701544 0.32749262 0.8440742     O
O56   0.78816646 0.53865033 0.92227876     O
O57   0.72914433 0.35787418 0.87048703     O
H58   0.06702721 0.6294703 0.3933574     H
H59   0.8072998 0.19205472 0.54055357     H
H60   0.8637629 0.6878655 0.41541088     H
H61   0.010298729 0.13183226 0.51829326     H
C62   0.020371914 0.5025537 0.4516474     C
C63   0.8544908 0.31690118 0.481254     C
C64   0.8761038 0.510655 0.43271232     C
C65   0.9987876 0.30867058 0.50009227     C
N66   0.7971101 0.41579178 0.44624475     N
N67   0.07791257 0.40329686 0.4863363     N
O68   0.10565925 0.5910618 0.43468857     O
O69   0.7689584 0.2291379 0.4988221     O
O70   0.81195724 0.6138559 0.402464     O
O71   0.062758684 0.20571138 0.5306564     O
H72   0.14013815 0.6262585 0.36478895     H
H73   0.64704394 0.17722034 0.52394056     H
H74   0.0062977155 0.9925033 0.40122384     H
H75   0.668004 0.7667591 0.64953154     H
C76   0.5847585 0.66265535 0.4631623     C
C77   0.284472 0.16123962 0.47007367     C
C78   0.36253548 0.034027457 0.46737188     C
C79   0.5057153 0.789578 0.46740174     C
C80   0.38119403 0.81380385 0.42794126     C
C81   0.4755777 0.005803466 0.51274776     C
C82   0.3188355 0.9367603 0.42297366     C
C83   0.5536317 0.88889927 0.5105483     C
C84   0.31376106 0.71222115 0.3896496     C
C85   0.5017471 0.09461558 0.5679659     C
S86   0.19663778 0.9675696 0.3549211     S
S87   0.70789355 0.8674808 0.5642494     S
O88   0.15254377 0.16194224 0.46301222     O
O89   0.71699214 0.6620393 0.46884635     O
O90   0.5198761 0.5601861 0.45004427     O
O91   0.34965968 0.2637955 0.4818142     O
O92   0.37672168 0.6471404 0.3510322     O
O93   0.17537455 0.6959818 0.394864     O
O94   0.44245735 0.0853318 0.6176923     O
O95   0.5964827 0.18538558 0.5652422     O
O96   0.18750703 0.10241735 0.33907312     O
O97   0.23901972 0.89486957 0.29489422     O
O98   0.041284062 0.9260315 0.37113163     O
O99   0.829887 0.85325986 0.52434397     O
O100  0.7315396 0.9734761 0.6127929     O
O101  0.70331424 0.738044 0.60711414     O
loop_
_geom_bond_atom_site_label_1
_geom_bond_atom_site_label_2
_geom_bond_distance
_geom_bond_site_symmetry_2
_ccdc_geom_bond_type
Zn0   Zn1    3.02458       .     S
Zn0   O51    4.13864       .     S
Zn0   O53    4.25419       .     D
Zn0   N67    2.18921       .     S
Zn0   O88    3.08433       .     S
Zn0   O90    2.88934       .     T
Zn1   Zn0    3.02458       .     S
Zn1   O50    4.18693       .     S
Zn1   O52    4.21239       .     S
Zn1   N66    2.10685       .     S
Zn1   O89    3.08795       .     S
Zn1   O91    2.95541       .     D
H2    C32    1.11544       .     S
H3    C31    1.11533       .     D
H4    C29    1.11486       .     S
H5    C30    1.11487   1_554     S
H6    C23    1.10629       .     S
H7    C23    1.10595       .     S
H8    C22    1.10960       .     S
H9    C22    1.10948       .     S
H10   C37    1.08282       .     S
H11   C38    1.08257       .     S
H12   C39    1.08256       .     S
H13   C40    1.08236   1_655     S
H14   C41    1.07953   1_556     S
H15   C43    1.08285       .     S
H16   C44    1.08249       .     S
H17   C45    1.08259   1_455     S
H18   C46    1.08244       .     S
H19   C47    1.07937   1_556     S
H20   O55    1.01376       .     S
H21   O57    1.01361       .     S
C22   H8     1.10960       .     S
C22   H9     1.10948       .     S
C22   C23    1.54533   1_556     S
C22   C35    1.55753       .     S
C23   H6     1.10629       .     A
C23   H7     1.10595       .     A
C23   C22    1.54533   1_554     A
C23   C34    1.54741       .     A
C24   C33    1.19863       .     S
C24   C35    1.46858       .     A
C25   C26    1.19738       .     A
C25   C34    1.46631       .     S
C26   C25    1.19738       .     S
C26   C27    1.41986       .     A
C27   C26    1.41986       .     A
C27   O50    1.27806       .     S
C27   O51    1.27784       .     A
C28   C33    1.42145       .     S
C28   O52    1.27757       .     A
C28   O53    1.27779       .     T
C29   H4     1.11486       .     A
C29   C32    1.57760   1_554     S
C29   C34    1.57484       .     A
C29   C42    1.54097       .     S
C30   H5     1.11487   1_556     S
C30   C31    1.57770       .     S
C30   C34    1.57500   1_556     S
C30   C36    1.54067   1_556     D
C31   H3     1.11533       .     S
C31   C30    1.57770       .     D
C31   C35    1.57581       .     S
C31   C48    1.52428       .     S
C32   H2     1.11544       .     T
C32   C29    1.57760   1_556     S
C32   C35    1.57601       .     S
C32   C49    1.52367       .     S
C33   C24    1.19863       .     S
C33   C28    1.42145       .     S
C34   C23    1.54741       .     D
C34   C25    1.46631       .     S
C34   C29    1.57484       .     D
C34   C30    1.57500   1_554     S
C35   C22    1.55753       .     S
C35   C24    1.46858       .     S
C35   C31    1.57581       .     S
C35   C32    1.57601       .     S
C36   C30    1.54067   1_554     S
C36   C37    1.41144       .     S
C36   C41    1.41178       .     S
C37   H10    1.08282       .     S
C37   C36    1.41144       .     S
C37   C38    1.39790   1_455     S
C38   H11    1.08257       .     S
C38   C37    1.39790   1_655     S
C38   C39    1.39468       .     S
C39   H12    1.08256       .     S
C39   C38    1.39468       .     S
C39   C40    1.39521   1_655     S
C40   H13    1.08236   1_455     S
C40   C39    1.39521   1_455     S
C40   C41    1.39820       .     S
C41   H14    1.07953   1_554     S
C41   C36    1.41178       .     S
C41   C40    1.39820       .     A
C42   C29    1.54097       .     A
C42   C43    1.41118       .     A
C42   C47    1.41186       .     A
C43   H15    1.08285       .     S
C43   C42    1.41118       .     A
C43   C44    1.39797       .     A
C44   H16    1.08249       .     S
C44   C43    1.39797       .     S
C44   C45    1.39486       .     A
C45   H17    1.08259   1_655     A
C45   C44    1.39486       .     S
C45   C46    1.39518       .     A
C46   H18    1.08244       .     S
C46   C45    1.39518       .     A
C46   C47    1.39821       .     T
C47   H19    1.07937   1_554     A
C47   C42    1.41186       .     S
C47   C46    1.39821       .     A
C48   C31    1.52428       .     S
C48   O54    1.22347       .     S
C48   O55    1.39867       .     S
C49   C32    1.52367       .     S
C49   O56    1.22333       .     D
C49   O57    1.39833       .     S
O50   Zn1    4.18693       .     S
O50   C27    1.27806       .     S
O51   Zn0    4.13864       .     S
O51   C27    1.27784       .     S
O52   Zn1    4.21239       .     S
O52   C28    1.27757       .     D
O53   Zn0    4.25419       .     D
O53   C28    1.27779       .     D
O54   C48    1.22347       .     D
O55   H20    1.01376       .     S
O55   C48    1.39867       .     S
O56   C49    1.22333       .     S
O57   H21    1.01361       .     S
O57   C49    1.39833       .     S
H58   O68    0.98990       .     S
H59   O69    0.99009       .     S
H60   O70    0.98964       .     S
H61   O71    0.98971       .     S
C62   C64    1.43993   1_455     S
C62   N67    1.36586       .     D
C62   O68    1.37792       .     D
C63   C65    1.43982       .     D
C63   N66    1.36570       .     D
C63   O69    1.37773       .     S
C64   C62    1.43993   1_655     S
C64   N66    1.36875       .     S
C64   O70    1.37821       .     S
C65   C63    1.43982       .     S
C65   N67    1.36881   1_655     D
C65   O71    1.37838   1_655     D
N66   Zn1    2.10685       .     S
N66   C63    1.36570       .     S
N66   C64    1.36875       .     S
N67   Zn0    2.18921       .     S
N67   C62    1.36586       .     S
N67   C65    1.36881   1_455     S
O68   H58    0.98990       .     S
O68   C62    1.37792       .     A
O69   H59    0.99009       .     A
O69   C63    1.37773       .     A
O70   H60    0.98964       .     S
O70   C64    1.37821       .     S
O71   H61    0.98971       .     S
O71   C65    1.37838   1_455     S
H72   O93    1.01418       .     A
H73   O95    1.01079       .     S
H74   O98    0.98840       .     A
H75   O101   0.99078       .     S
C76   C79    1.52674       .     S
C76   O89    1.29701       .     S
C76   O90    1.31739       .     A
C77   C78    1.52328       .     S
C77   O88    1.29461       .     S
C77   O91    1.31618       .     S
C78   C77    1.52328       .     S
C78   C81    1.41514       .     D
C78   C82    1.42607   1_545     D
C79   C76    1.52674       .     S
C79   C80    1.42742       .     D
C79   C83    1.44064       .     D
C80   C79    1.42742       .     S
C80   C82    1.42146       .     S
C80   C84    1.48309       .     S
C81   C78    1.41514       .     S
C81   C83    1.42851   1_545     S
C81   C85    1.47100       .     S
C82   C78    1.42607   1_565     S
C82   C80    1.42146       .     A
C82   S86    1.79074       .     A
C83   C79    1.44064       .     A
C83   C81    1.42851   1_565     S
C83   S87    1.80916       .     S
C84   C80    1.48309       .     S
C84   O92    1.21514       .     S
C84   O93    1.39686       .     A
C85   C81    1.47100       .     S
C85   O94    1.22010       .     A
C85   O95    1.39735       .     S
S86   C82    1.79074       .     S
S86   O96    1.48882   1_565     S
S86   O97    1.50331       .     A
S86   O98    1.68037       .     S
S87   C83    1.80916       .     S
S87   O99    1.49950       .     S
S87   O100   1.50216       .     S
S87   O101   1.67129       .     D
O88   Zn0    3.08433       .     D
O88   C77    1.29461       .     S
O89   Zn1    3.08795       .     S
O89   C76    1.29701       .     S
O90   Zn0    2.88934       .     S
O90   C76    1.31739       .     S
O91   Zn1    2.95541       .     S
O91   C77    1.31618       .     S
O92   C84    1.21514       .     S
O93   H72    1.01418       .     S
O93   C84    1.39686       .     S
O94   C85    1.22010       .     S
O95   H73    1.01079       .     S
O95   C85    1.39735       .     S
O96   S86    1.48882   1_545     S
O97   S86    1.50331       .     S
O98   H74    0.98840       .     S
O98   S86    1.68037       .     S
O99   S87    1.49950       .     S
O100  S87    1.50216       .     S
O101  H75    0.99078       .     S
O101  S87    1.67129       .     S
