data_I
_chemical_name_common  'nh3_gradient_2.0_v2/cif/sample_0'
_cell_length_a 13.22335
_cell_length_b 13.69263
_cell_length_c 14.22495
_cell_angle_alpha 101.62959
_cell_angle_beta  111.92681
_cell_angle_gamma 98.33945
_space_group_name_H-M_alt      'P 1'


loop_
_space_group_symop_operation_xyz
  'x, y, z' 

loop_
_atom_site_label
_atom_site_fract_x
_atom_site_fract_y
_atom_site_fract_z
_atom_site_type_symbol
Zn0   0.21935718 0.16449189 0.2706136    Zn
Zn1   0.30909103 0.36345452 0.44519567    Zn
H2    0.022467902 0.087457724 0.09532869     H
H3    0.14894213 0.4008744 0.45407337     H
H4    0.036676917 0.14471662 0.9460145     H
H5    0.109146535 0.3361066 0.58876723     H
H6    0.39443204 0.23786543 0.115715146     H
H7    0.45914206 0.3492698 0.75039226     H
H8    0.36217517 0.15039536 0.9306939     H
H9    0.3871392 0.20662297 0.7872296     H
H10   0.1286959 0.37269107 0.7639984     H
H11   0.10088385 0.3119603 0.9051941     H
H12   0.56437063 0.20366308 0.3662076     H
H13   0.51386875 0.29420042 0.2959782     H
H14   0.5120109 0.16481474 0.22657299     H
H15   0.674428 0.38775334 0.6546943     H
H16   0.57118005 0.29576254 0.6644364     H
H17   0.62572026 0.42690527 0.75424635     H
C18   0.10430525 0.119858176 0.09975767     C
C19   0.21696487 0.38847956 0.5185631     C
C20   0.11240847 0.15296337 0.015326142     C
C21   0.19465049 0.35215744 0.5958276     C
C22   0.21813688 0.19432406 0.020204902     C
C23   0.28202668 0.33534473 0.6797897     C
C24   0.31365842 0.20325032 0.11187327     C
C25   0.39077964 0.35683897 0.68313295     C
C26   0.30308738 0.16909748 0.19684148     C
C27   0.41052735 0.39028868 0.60158896     C
C28   0.31077546 0.1989963 0.8949307     C
C29   0.32546648 0.232001 0.812807     C
C30   0.2613166 0.29598358 0.764094     C
C31   0.23014742 0.22724845 0.92999876     C
C32   0.1791484 0.32287008 0.7982405     C
C33   0.16332541 0.28840104 0.879609     C
C34   0.4998719 0.21149492 0.29335737     C
C35   0.5992404 0.378806 0.67229444     C
N36   0.19813415 0.12774368 0.18736374     N
N37   0.32249796 0.40573266 0.5218737     N
O38   0.39324656 0.17450836 0.29045057     O
O39   0.5159651 0.41305673 0.59977126     O
H40   0.33653915 0.8314646 0.4656586     H
H41   0.9686379 0.66709137 0.14675173     H
C42   0.1599801 0.946382 0.32929423     C
C43   0.25984582 0.804311 0.39335436     C
C44   0.2325403 0.7073884 0.33281538     C
C45   0.30864066 0.64356893 0.36589605     C
C46   0.20162554 0.88005877 0.35955563     C
C47   0.36428645 0.5838689 0.3917953     C
C48   0.41129032 0.5010036 0.41873503     C
C49   0.12417716 0.030312538 0.29306173     C
C50   0.1261294 0.66075784 0.2357705     C
O51   0.13215917 0.11062503 0.36113417     O
O52   0.11214002 0.030795455 0.20056315     O
O53   0.41003528 0.4812689 0.50190663     O
O54   0.11631159 0.5787697 0.17557842     O
O55   0.0361378 0.70786667 0.21415715     O
O56   0.41469553 0.43376398 0.3449543     O
H57   0.81766915 0.17094629 0.4890419     H
H58   0.6345941 0.17942898 0.41890725     H
H59   0.72532445 0.4389708 0.38029832     H
H60   0.6979741 0.37636313 0.4702809     H
H61   0.90743655 0.42852145 0.4452477     H
H62   0.64922076 0.19673826 0.16049685     H
H63   0.6960694 0.33278733 0.19846797     H
H64   0.0042061806 0.26844344 0.21719866     H
H65   0.61627495 0.10486408 0.2921584     H
H66   0.051769495 0.12974022 0.114574336     H
H67   0.9308123 0.9527519 0.045545377     H
H68   0.7605062 0.91507125 0.07909942     H
H69   0.7111394 0.051043507 0.18162708     H
H70   0.80058426 0.0941652 0.3655055     H
H71   0.8770758 0.33218092 0.27424708     H
C72   0.33601004 0.28911927 0.1998773     C
C73   0.19025815 0.24317926 0.51140976     C
C74    0.66791 0.1756248 0.3573503     C
C75   0.7312078 0.36898342 0.40856442     C
C76   0.7915614 0.16908939 0.40464652     C
C77   0.8555015 0.36281702 0.45483524     C
C78   0.078051805 0.24892405 0.4715528     C
C79   0.658895 0.27183846 0.31612518     C
C80   0.85360146 0.17159188 0.20798242     C
C81   0.94957954 0.19187133 0.187175     C
C82   0.9772887 0.11327867 0.12920809     C
C83   0.9092906 0.013537115 0.090440534     C
C84   0.81346583 0.9922664 0.109582424     C
C85   0.7857633 0.07036334 0.16814882     C
C86   0.8673805 0.25991884 0.39383066     C
C87   0.82830787 0.2589422 0.2750371     C
C88   0.7031278 0.26407695 0.22889295     C
C89   0.98297143 0.2538095 0.43719548     C
C90   0.5434593 0.27808267 0.27408084     C
C91   0.44833475 0.2831738 0.23999149     C
Cl92  0.906402 0.37853116 0.5945317    Cl
O93   0.26292077 0.21422957 0.1225928     O
O94   0.31104127 0.36930606 0.2418663     O
O95   0.21518505 0.16311663 0.4692126     O
O96   0.26330554 0.3181932 0.5884862     O
loop_
_geom_bond_atom_site_label_1
_geom_bond_atom_site_label_2
_geom_bond_distance
_geom_bond_site_symmetry_2
_ccdc_geom_bond_type
Zn0   Zn1    3.02177       .     S
Zn0   N36    1.09769       .     S
Zn0   O51    2.18556       .     S
Zn0   O52    1.95215       .     S
Zn0   O93    2.56892       .     S
Zn0   O95    2.84990       .     S
Zn1   Zn0    3.02177       .     S
Zn1   N37    1.06184       .     S
Zn1   O53    1.75539       .     S
Zn1   O56    2.56140       .     S
Zn1   O94    2.91913       .     S
Zn1   O96    2.49548       .     S
H2    C18    1.08186       .     S
H3    C19    1.08177       .     S
H4    C20    1.08287   1_556     S
H5    C21    1.08211       .     S
H6    C24    1.08055       .     A
H7    C25    1.07913       .     A
H8    C28    1.08309       .     A
H9    C29    1.08214       .     A
H10   C32    1.08213       .     A
H11   C33    1.08288       .     A
H12   C34    1.10637       .     A
H13   C34    1.11136       .     A
H14   C34    1.11160       .     A
H15   C35    1.10866       .     A
H16   C35    1.11289       .     A
H17   C35    1.11089       .     S
C18   H2     1.08186       .     A
C18   C20    1.40034       .     A
C18   N36    1.36242       .     S
C19   H3     1.08177       .     A
C19   C21    1.40086       .     A
C19   N37    1.36244       .     A
C20   H4     1.08287   1_554     S
C20   C18    1.40034       .     S
C20   C22    1.40079       .     A
C21   H5     1.08211       .     S
C21   C19    1.40086       .     S
C21   C23    1.40422       .     A
C22   C20    1.40079       .     S
C22   C24    1.40414       .     S
C22   C31    1.49655   1_554     S
C23   C21    1.40422       .     S
C23   C25    1.40622       .     S
C23   C30    1.50554       .     S
C24   H6     1.08055       .     S
C24   C22    1.40414       .     S
C24   C26    1.42626       .     S
C25   H7     1.07913       .     S
C25   C23    1.40622       .     S
C25   C27    1.42450       .     S
C26   C24    1.42626       .     S
C26   N36    1.36617       .     S
C26   O38    1.39604       .     S
C27   C25    1.42450       .     S
C27   N37    1.36668       .     A
C27   O39    1.39494       .     A
C28   H8     1.08309       .     A
C28   C29    1.40127       .     A
C28   C31    1.40508       .     A
C29   H9     1.08214       .     A
C29   C28    1.40127       .     A
C29   C30    1.41018       .     A
C30   C23    1.50554       .     A
C30   C29    1.41018       .     A
C30   C32    1.41072       .     A
C31   C22    1.49655   1_556     S
C31   C28    1.40508       .     A
C31   C33    1.40687       .     A
C32   H10    1.08213       .     S
C32   C30    1.41072       .     A
C32   C33    1.40667       .     A
C33   H11    1.08288       .     A
C33   C31    1.40687       .     S
C33   C32    1.40667       .     S
C34   H12    1.10637       .     A
C34   H13    1.11136       .     S
C34   H14    1.11160       .     S
C34   O38    1.40962       .     A
C35   H15    1.10866       .     S
C35   H16    1.11289       .     S
C35   H17    1.11089       .     D
C35   O39    1.41183       .     S
N36   Zn0    1.09769       .     S
N36   C18    1.36242       .     T
N36   C26    1.36617       .     S
N37   Zn1    1.06184       .     S
N37   C19    1.36244       .     D
N37   C27    1.36668       .     S
O38   C26    1.39604       .     D
O38   C34    1.40962       .     S
O39   C27    1.39494       .     S
O39   C35    1.41183       .     T
H40   C43    1.08721       .     S
H41   O55    1.01401   1_655     S
C42   C46    1.19955       .     D
C42   C49    1.42299   1_565     S
C43   H40    1.08721       .     D
C43   C44    1.34210       .     S
C43   C46    1.43382       .     S
C44   C43    1.34210       .     T
C44   C45    1.43698       .     S
C44   C50    1.49218       .     S
C45   C44    1.43698       .     D
C45   C47    1.19951       .     S
C46   C42    1.19955       .     D
C46   C43    1.43382       .     S
C47   C45    1.19951       .     S
C47   C48    1.42217       .     T
C48   C47    1.42217       .     S
C48   O53    1.27095       .     S
C48   O56    1.26844       .     D
C49   C42    1.42299   1_545     S
C49   O51    1.27232       .     D
C49   O52    1.26652       .     S
C50   C44    1.49218       .     S
C50   O54    1.22371       .     T
C50   O55    1.39859       .     S
O51   Zn0    2.18556       .     S
O51   C49    1.27232       .     S
O52   Zn0    1.95215       .     S
O52   C49    1.26652       .     S
O53   Zn1    1.75539       .     S
O53   C48    1.27095       .     S
O54   C50    1.22371       .     S
O55   H41    1.01401   1_455     S
O55   C50    1.39859       .     S
O56   Zn1    2.56140       .     S
O56   C48    1.26844       .     S
H57   C76    1.11207       .     S
H58   C74    1.11352       .     S
H59   C75    1.11342       .     S
H60   C75    1.11325       .     S
H61   C77    1.11348       .     S
H62   C88    1.11112       .     S
H63   C88    1.11384       .     S
H64   C81    1.08298   1_455     S
H65   C74    1.11261       .     S
H66   C82    1.08249   1_455     S
H67   C83    1.08246   1_565     S
H68   C84    1.08139       .     A
H69   C85    1.08004       .     A
H70   C76    1.10976       .     S
H71   C87    1.11536       .     S
C72   C91    1.39971       .     A
C72   O93    1.28790       .     A
C72   O94    1.28816       .     S
C73   C78    1.39739       .     A
C73   O95    1.28765       .     A
C73   O96    1.28739       .     S
C74   H58    1.11352       .     T
C74   H65    1.11261       .     S
C74   C76    1.54250       .     S
C74   C79    1.54871       .     D
C75   H59    1.11342       .     S
C75   H60    1.11325       .     D
C75   C77    1.54804       .     S
C75   C79    1.54906       .     S
C76   H57    1.11207       .     T
C76   H70    1.10976       .     S
C76   C74    1.54250       .     S
C76   C86    1.55122       .     S
C77   H61    1.11348       .     S
C77   C75    1.54804       .     S
C77   C86    1.56074       .     S
C77   Cl92   1.79858       .     S
C78   C73    1.39739       .     S
C78   C89    1.18438   1_455     S
C79   C74    1.54871       .     S
C79   C75    1.54906       .     S
C79   C88    1.54922       .     S
C79   C90    1.43934       .     S
C80   C81    1.40958       .     S
C80   C85    1.41069       .     S
C80   C87    1.53186       .     S
C81   H64    1.08298   1_655     S
C81   C80    1.40958       .     S
C81   C82    1.39804       .     S
C82   H66    1.08249   1_655     S
C82   C81    1.39804       .     S
C82   C83    1.39557       .     S
C83   H67    1.08246   1_545     S
C83   C82    1.39557       .     A
C83   C84    1.39541   1_545     A
C84   H68    1.08139       .     S
C84   C83    1.39541   1_565     S
C84   C85    1.39791   1_565     A
C85   H69    1.08004       .     A
C85   C80    1.41069       .     S
C85   C84    1.39791   1_545     A
C86   C76    1.55122       .     A
C86   C77    1.56074       .     S
C86   C87    1.56828       .     T
C86   C89    1.44137       .     S
C87   H71    1.11536       .     S
C87   C80    1.53186       .     D
C87   C86    1.56828       .     S
C87   C88    1.55458       .     S
C88   H62    1.11112       .     S
C88   H63    1.11384       .     S
C88   C79    1.54922       .     S
C88   C87    1.55458       .     S
C89   C78    1.18438   1_655     S
C89   C86    1.44137       .     S
C90   C79    1.43934       .     S
C90   C91    1.18564       .     S
C91   C72    1.39971       .     S
C91   C90    1.18564       .     S
Cl92  C77    1.79858       .     S
O93   Zn0    2.56892       .     S
O93   C72    1.28790       .     S
O94   Zn1    2.91913       .     S
O94   C72    1.28816       .     S
O95   Zn0    2.84990       .     S
O95   C73    1.28765       .     S
O96   Zn1    2.49548       .     S
O96   C73    1.28739       .     S
