data_I
_chemical_name_common  'nh3_gradient_5.00/cif/sample_2'
_cell_length_a 20.34927
_cell_length_b 20.92290
_cell_length_c 30.90341
_cell_angle_alpha 97.31591
_cell_angle_beta  93.15102
_cell_angle_gamma 63.40047
_space_group_name_H-M_alt      'P 1'


loop_
_space_group_symop_operation_xyz
  'x, y, z' 

loop_
_atom_site_label
_atom_site_fract_x
_atom_site_fract_y
_atom_site_fract_z
_atom_site_type_symbol
H0    0.8306786 0.385668 0.80170834     H
H1    0.61199194 0.14653246 0.88894475     H
H2    0.5828051 0.23461759 0.8388283     H
H3    0.5720152 0.50785005 0.85278726     H
H4    0.59418553 0.3514979 0.96202224     H
H5    0.6406752 0.41945836 0.9251544     H
H6    0.47827128 0.3484336 0.9650736     H
H7    0.40541142 0.29569843 0.9912559     H
H8    0.5375917 0.0940018 0.91419494     H
H9    0.7729862 0.31544387 0.8243186     H
C10   0.41085586 0.1649359 0.96190715     C
C11   0.734546 0.48898643 0.8140679     C
C12   0.6596402 0.52328694 0.8269558     C
C13   0.62834454 0.48200527 0.8412444     C
C14   0.66922283 0.40748018 0.840893     C
C15    0.74095 0.37310997 0.8246571     C
C16   0.7734068 0.4134653 0.81141746     C
C17   0.6236372 0.31264704 0.8359634     C
C18   0.5974152 0.27365038 0.85770196     C
C19   0.5856059 0.28767174 0.90305394     C
C20   0.60197294 0.34025326 0.9269954     C
C21   0.6281039 0.37923604 0.90594596     C
C22   0.63875973 0.36630052 0.8606426     C
C23   0.49338207 0.29214278 0.95487463     C
C24   0.45142704 0.26194835 0.9697702     C
C25   0.52536255 0.14901915 0.92643976     C
C26   0.5675494 0.17918658 0.9116928     C
C27   0.55011976 0.2518366 0.92446935     C
C28   0.465132 0.19099778 0.95430773     C
O29   0.41749164 0.10552197 0.94125646     O
O30   0.6202618 0.6299675 0.7928649     O
O31   0.5616856 0.63523096 0.85355353     O
C32   0.7767573 0.5300139 0.810414     C
N33   0.63205767 0.29867107 0.78919876     N
N34   0.6149499 0.59912395 0.8256256     N
O35   0.3536951 0.20633686 0.98428416     O
O36   0.83990616 0.4976657 0.7922196     O
O37   0.7547869 0.59269255 0.83103734     O
O38   0.62169677 0.34999233 0.7658937     O
O39   0.64250046 0.23621581 0.7692185     O
H40   0.43586892 0.9953446 0.80118495     H
H41   0.7000191 0.68814236 0.87395114     H
H42   0.30598146 0.07486546 0.8148879     H
H43   0.81665206 0.5878909 0.88968444     H
H44   0.58548945 0.9855476 0.8969435     H
H45   0.6295235 0.7542411 0.8088594     H
H46   0.71016836 0.8870066 0.89088094     H
H47   0.5042354 0.8516518 0.81707287     H
C48   0.9507749 0.57678777 0.88030005     C
C49   0.23659083 0.117744446 0.8903648     C
C50   0.35841596 0.036875367   0.9196     C
C51   0.88269377 0.69815534 0.8563732     C
C52   0.43344194 0.99141854 0.9115594     C
C53   0.8158383 0.7547788 0.84553456     C
C54   0.46113142 0.97696716 0.86863047     C
C55   0.7496091 0.7514162 0.85258555     C
C56   0.4148294 0.0069777966 0.83419704     C
C57   0.75068027 0.6908492 0.8681153     C
C58   0.3410609 0.051201224 0.8419287     C
C59   0.8166783 0.6345206 0.8779299     C
C60   0.3128021 0.06636834 0.8842238     C
C61   0.8822665 0.63865465 0.8731661     C
C62   0.5950984 0.9353543 0.8774261     C
C63   0.62035924 0.8049842 0.82754904     C
C64   0.66590744 0.8798012 0.8733938     C
C65   0.5494419 0.8602091 0.8321249     C
C66   0.6784144 0.8137461 0.849436     C
C67   0.5365214 0.92432916 0.8584467     C
N68   0.3286921 0.05136168 0.96296376     N
N69   0.95081043 0.69823503 0.84676725     N
N70   0.4797077 0.9550218 0.9459587     N
N71   0.81530035 0.8148214 0.827134     N
O72   0.998272 0.58562934 0.906308     O
O73   0.18840592 0.10789871 0.8655398     O
O74   0.96622765 0.517503 0.8556158     O
O75   0.22045009 0.17602503 0.91623205     O
O76   0.2658397 0.051623106 0.9692165     O
O77   0.3649292 0.06299722 0.9965498     O
O78   0.9918494 0.7073487 0.878346     O
O79   0.96637833 0.69981384 0.8067716     O
O80   0.47224846 0.9026883 0.9601235     O
O81   0.52107996 0.9808508 0.9673003     O
O82   0.7734195 0.83994335 0.7939651     O
O83   0.85648555 0.84476197 0.8434801     O
O84   0.09402545 0.34823895 0.8854773     O
Zn85  0.19793838 0.25418746 0.881831    Zn
Zn86  0.10415444 0.43532208 0.8766746    Zn
Zn87  0.057082668 0.36371708 0.9455473    Zn
Zn88  0.01692628 0.33972904 0.8378564    Zn
H89   0.17050041 0.23371834 0.13886139     H
H90   0.22569753 0.3039872 0.62262577     H
H91   0.052719653 0.20608836 0.2644321     H
H92   0.18184757 0.45041835 0.50461894     H
H93   0.06829864 0.19161236 0.3398235     H
H94   0.19572349 0.44258034 0.42808843     H
H95   0.11449651 0.1588712 0.40002158     H
H96   0.23865768 0.40820488 0.3647677     H
H97   0.9622162 0.324248 0.71298194     H
H98   0.9835966 0.51207185 0.06245435     H
H99   0.9356637 0.3493122 0.6054735     H
H100  0.96996444 0.5258543 0.17249882     H
H101  0.100040525 0.11811361 0.45926318     H
H102  0.2590043 0.44463003 0.30531898     H
H103  0.18715382 0.19337068 0.06721099     H
H104  0.27068403 0.29904267 0.69020635     H
C105  0.14451239 0.3069574 0.47459462     C
C106  0.14084764 0.3113429 0.29268333     C
C107  0.1275168 0.257587 0.49295306     C
C108  0.16776381 0.35335517 0.2740392     C
C109  0.11846881 0.20289458 0.4654049     C
C110  0.20501298 0.38671848 0.30051044     C
C111  0.15435119 0.361246 0.5019869     C
C112  0.104680985 0.27689737 0.2662376     C
C113  0.1007739 0.3281087 0.7000428     C
C114  0.08751703 0.36558494 0.07252871     C
C115  0.12483559 0.25952274 0.3558667     C
C116  0.17173216 0.3502266 0.41094866     C
C117  0.1772277 0.34599674 0.3651061     C
C118  0.13231312 0.25398356 0.40125147     C
C119  0.1483649 0.3050319 0.33793533     C
C120  0.15021114 0.30322608 0.42882633     C
C121  0.09108174 0.22386833 0.32809883     C
C122  0.18335679 0.4025421 0.43948355     C
C123  0.080694824 0.23298387 0.28418252     C
C124  0.1741285 0.40825734 0.48413652     C
C125  0.0987873 0.32309657 0.74743754     C
C126  0.08649854 0.3742589 0.026258983     C
C127  0.12068424 0.20193568 0.42007473     C
C128  0.20904946 0.38285798 0.34557402     C
C129  0.11969449 0.26511556 0.5385785     C
C130  0.15555012 0.3611836 0.22931665     C
C131  0.14233784 0.36853606 0.54678017     C
C132  0.09126456 0.28892633 0.22249193     C
C133  0.17347561 0.31604725 0.6370388     C
C134  0.136044 0.28643683 0.12885472     C
C135  0.16819854 0.31649485 0.68177986     C
C136  0.12829682 0.29595062 0.08479207     C
C137  0.03754576 0.34476623 0.67282945     C
C138  0.051659275 0.4253067 0.10435318     C
C139  0.043688685 0.3466836 0.62757117     C
C140  0.053864416 0.4136633 0.14870971     C
C141  0.11295911 0.32967827 0.6100583     C
C142  0.10019781 0.34413296 0.16058129     C
C143  0.96558243 0.3592858 0.6911736     C
C144  0.017156538 0.4995264 0.091422155     C
C145  0.97883743 0.3632921 0.5982423     C
C146  0.004881386 0.4726755 0.1815938     C
N147  0.124336705 0.32148302 0.5639504     N
N148  0.11539173 0.33159807 0.20531668     N
O149  0.036865775 0.3544005 0.76898307     O
O150  0.14814372 0.3423428 0.0050454154     O
O151  0.16078852 0.28806135 0.7668683     O
O152  0.02422095 0.40868193 0.007160297     O
O153  0.10685698 0.2172758 0.5576969     O
O154  0.1821756 0.3989426 0.20982337     O
O155  0.053488478 0.25914034 0.19734898     O
O156  0.14784499 0.42263928 0.5730647     O
O157  0.90944827 0.41154885 0.68266934     O
O158  0.02863595 0.5470901 0.11233757     O
O159  0.9724058 0.39371935 0.56594986     O
O160  0.9999536 0.46231073 0.21900624     O
O161  0.10592657 0.15176776 0.4830222     O
O162  0.23579252 0.4241153 0.28222212     O
O163  0.16105416 0.23816246 0.053092077     O
O164  0.22853442 0.30611295 0.70817614     O
loop_
_geom_bond_atom_site_label_1
_geom_bond_atom_site_label_2
_geom_bond_distance
_geom_bond_site_symmetry_2
_ccdc_geom_bond_type
H0    C16    1.08330       .     D
H1    C26    1.08311       .     S
H2    C18    1.08287       .     D
H3    C13    1.08366       .     S
H4    C20    1.08295       .     D
H5    C21    1.08393       .     S
H6    C23    1.08297       .     A
H7    C24    1.08312       .     A
H8    C25    1.08309       .     S
H9    C15    1.08352       .     A
C10   C28    1.47405       .     A
C10   O29    1.27591       .     S
C10   O35    1.27088       .     A
C11   C12    1.41825       .     S
C11   C16    1.40856       .     A
C11   C32    1.47753       .     S
C12   C11    1.41825       .     D
C12   C13    1.40257       .     D
C12   N34    1.43761       .     S
C13   H3     1.08366       .     A
C13   C12    1.40257       .     A
C13   C14    1.39949       .     S
C14   C13    1.39949       .     A
C14   C15    1.39570       .     A
C14   C22    1.46729       .     S
C15   H9     1.08352       .     A
C15   C14    1.39570       .     S
C15   C16    1.39055       .     A
C16   H0     1.08330       .     S
C16   C11    1.40856       .     A
C16   C15    1.39055       .     A
C17   C18    1.40380       .     S
C17   C22    1.41495       .     S
C17   N33    1.44158       .     A
C18   H2     1.08287       .     A
C18   C17    1.40380       .     S
C18   C19    1.40616       .     A
C19   C18    1.40616       .     S
C19   C20    1.40086       .     A
C19   C27    1.47830       .     S
C20   H4     1.08295       .     D
C20   C19    1.40086       .     S
C20   C21    1.39022       .     D
C21   H5     1.08393       .     S
C21   C20    1.39022       .     D
C21   C22    1.40167       .     S
C22   C14    1.46729       .     D
C22   C17    1.41495       .     S
C22   C21    1.40167       .     A
C23   H6     1.08297       .     A
C23   C24    1.39290       .     S
C23   C27    1.40451       .     A
C24   H7     1.08312       .     A
C24   C23    1.39290       .     S
C24   C28    1.40466       .     A
C25   H8     1.08309       .     S
C25   C26    1.39448       .     A
C25   C28    1.40525       .     S
C26   H1     1.08311       .     D
C26   C25    1.39448       .     D
C26   C27    1.40428       .     S
C27   C19    1.47830       .     A
C27   C23    1.40451       .     A
C27   C26    1.40428       .     S
C28   C10    1.47405       .     A
C28   C24    1.40466       .     A
C28   C25    1.40525       .     S
O29   C10    1.27591       .     A
O29   Zn85   4.59528       .     S
O30   N34    1.30155       .     A
O31   N34    1.30151       .     S
C32   C11    1.47753       .     A
C32   O36    1.27640       .     A
C32   O37    1.27252       .     S
N33   C17    1.44158       .     S
N33   O38    1.30142       .     A
N33   O39    1.30164       .     A
N34   C12    1.43761       .     S
N34   O30    1.30155       .     A
N34   O31    1.30151       .     S
O35   C10    1.27088       .     A
O35   Zn86   6.34141       .     S
O36   C32    1.27640       .     D
O36   Zn88   3.98165   1_655     S
O37   C32    1.27252       .     D
O37   Zn87   6.98921   1_655     S
O38   N33    1.30142       .     S
O39   N33    1.30164       .     D
H40   C56    1.08388   1_565     D
H41   C57    1.08344       .     S
H42   C58    1.08458       .     A
H43   C59    1.08377       .     A
H44   C62    1.08290       .     A
H45   C63    1.08348       .     S
H46   C64    1.08320       .     A
H47   C65    1.08348       .     S
C48   C61    1.44588       .     A
C48   O72    1.28500       .     D
C48   O74    1.28666       .     A
C49   C60    1.44366       .     S
C49   O73    1.28467       .     D
C49   O75    1.28677       .     S
C50   C52    1.40656   1_545     A
C50   C60    1.40885       .     A
C50   N68    1.44050       .     S
C51   C53    1.40508       .     S
C51   C61    1.41208       .     A
C51   N69    1.43419       .     A
C52   C50    1.40656   1_565     S
C52   C54    1.41293       .     A
C52   N70    1.43195       .     S
C53   C51    1.40508       .     A
C53   C55    1.41063       .     S
C53   N71    1.43896       .     D
C54   C52    1.41293       .     D
C54   C56    1.39446   1_565     S
C54   C67    1.45510       .     A
C55   C53    1.41063       .     A
C55   C57    1.40203       .     A
C55   C66    1.46082       .     S
C56   H40    1.08387   1_545     A
C56   C54    1.39446   1_545     S
C56   C58    1.38056       .     A
C57   H41    1.08344       .     D
C57   C55    1.40203       .     A
C57   C59    1.38330       .     S
C58   H42    1.08458       .     D
C58   C56    1.38056       .     S
C58   C60    1.39763       .     D
C59   H43    1.08377       .     S
C59   C57    1.38330       .     D
C59   C61    1.39238       .     S
C60   C49    1.44366       .     S
C60   C50    1.40885       .     D
C60   C58    1.39763       .     D
C61   C48    1.44588       .     S
C61   C51    1.41208       .     A
C61   C59    1.39238       .     A
C62   H44    1.08290       .     A
C62   C64    1.38774       .     S
C62   C67    1.39750       .     A
C63   H45    1.08348       .     S
C63   C65    1.38754       .     A
C63   C66    1.40046       .     D
C64   H46    1.08320       .     A
C64   C62    1.38774       .     S
C64   C66    1.40291       .     D
C65   H47    1.08348       .     S
C65   C63    1.38754       .     A
C65   C67    1.40012       .     A
C66   C55    1.46082       .     S
C66   C63    1.40046       .     S
C66   C64    1.40291       .     A
C67   C54    1.45510       .     A
C67   C62    1.39750       .     S
C67   C65    1.40012       .     A
N68   C50    1.44050       .     S
N68   O76    1.30148       .     A
N68   O77    1.30099       .     S
N69   C51    1.43419       .     D
N69   O78    1.30067       .     D
N69   O79    1.30076       .     S
N70   C52    1.43195       .     A
N70   O80    1.30070       .     A
N70   O81    1.30055       .     A
N71   C53    1.43896       .     S
N71   O82    1.30128       .     A
N71   O83    1.30116       .     S
O72   C48    1.28500       .     A
O72   Zn86   2.96424   1_655     D
O73   C49    1.28467       .     A
O73   Zn85   3.12858       .     S
O74   C48    1.28666       .     D
O74   Zn88   3.36252   1_655     S
O75   C49    1.28677       .     D
O75   Zn86   5.13827       .     S
O76   N68    1.30148       .     S
O77   N68    1.30099       .     S
O78   N69    1.30067       .     S
O79   N69    1.30076       .     S
O80   N70    1.30070       .     S
O81   N70    1.30055       .     S
O82   N71    1.30128       .     S
O83   N71    1.30116       .     S
O84   Zn85   2.14472       .     D
O84   Zn86   1.97611       .     S
O84   Zn87   1.97444       .     S
O84   Zn88   2.14208       .     S
Zn85  O29    4.59528       .     S
Zn85  O73    3.12858       .     S
Zn85  O84    2.14472       .     A
Zn85  O151   3.68266       .     A
Zn86  O35    6.34141       .     D
Zn86  O72    2.96424   1_455     S
Zn86  O75    5.13827       .     A
Zn86  O84    1.97611       .     A
Zn87  O37    6.98921   1_455     S
Zn87  O84    1.97444       .     A
Zn87  O150   2.47129   1_556     A
Zn87  O152   2.01942   1_556     S
Zn88  O36    3.98165   1_455     S
Zn88  O74    3.36252   1_455     S
Zn88  O84    2.14208       .     D
Zn88  O149   2.27199       .     D
H89   C134   1.08368       .     S
H90   C133   1.08381       .     S
H91   C123   1.08373       .     D
H92   C124   1.08371       .     S
H93   C121   1.07826       .     S
H94   C122   1.07832       .     S
H95   C127   1.07823       .     S
H96   C128   1.07834       .     A
H97   C143   1.08268       .     A
H98   C144   1.08110   1_655     A
H99   C145   1.08430       .     A
H100  C146   1.08240   1_655     S
H101  O161   0.99169       .     A
H102  O162   0.99161       .     A
H103  O163   0.99181       .     A
H104  O164   0.99185       .     S
C105  C107   1.41395       .     A
C105  C111   1.40962       .     A
C105  C120   1.41487       .     A
C106  C108   1.41403       .     S
C106  C112   1.40990       .     A
C106  C119   1.41488       .     A
C107  C105   1.41395       .     A
C107  C109   1.41120       .     A
C107  C129   1.40849       .     A
C108  C106   1.41403       .     A
C108  C110   1.41113       .     A
C108  C130   1.40790       .     S
C109  C107   1.41120       .     S
C109  C127   1.40136       .     A
C109  O161   1.38345       .     A
C110  C108   1.41113       .     A
C110  C128   1.40100       .     S
C110  O162   1.38360       .     A
C111  C105   1.40962       .     A
C111  C124   1.39673       .     A
C111  C131   1.39616       .     A
C112  C106   1.40990       .     S
C112  C123   1.39682       .     S
C112  C132   1.39643       .     S
C113  C125   1.48569       .     S
C113  C135   1.41835       .     D
C113  C137   1.42769       .     S
C114  C126   1.46199       .     S
C114  C136   1.40653       .     D
C114  C138   1.41791       .     D
C115  C118   1.41628       .     S
C115  C119   1.41943       .     S
C115  C121   1.41269       .     S
C116  C117   1.41562       .     A
C116  C120   1.41940       .     A
C116  C122   1.41238       .     S
C117  C116   1.41562       .     A
C117  C119   1.41348       .     A
C117  C128   1.40970       .     S
C118  C115   1.41628       .     A
C118  C120   1.41373       .     D
C118  C127   1.40979       .     A
C119  C106   1.41488       .     S
C119  C115   1.41943       .     S
C119  C117   1.41348       .     S
C120  C105   1.41487       .     S
C120  C116   1.41940       .     D
C120  C118   1.41373       .     S
C121  H93    1.07826       .     D
C121  C115   1.41269       .     S
C121  C123   1.38609       .     S
C122  H94    1.07832       .     S
C122  C116   1.41238       .     S
C122  C124   1.38569       .     S
C123  H91    1.08373       .     A
C123  C112   1.39682       .     A
C123  C121   1.38609       .     D
C124  H92    1.08371       .     S
C124  C111   1.39673       .     A
C124  C122   1.38569       .     A
C125  C113   1.48569       .     S
C125  O149   1.30467       .     A
C125  O151   1.30014       .     A
C126  C114   1.46199       .     S
C126  O150   1.29540       .     S
C126  O152   1.29684       .     S
C127  H95    1.07823       .     D
C127  C109   1.40136       .     D
C127  C118   1.40979       .     S
C128  H96    1.07834       .     S
C128  C110   1.40100       .     D
C128  C117   1.40970       .     S
C129  C107   1.40849       .     S
C129  N147   1.36775       .     S
C129  O153   1.34942       .     S
C130  C108   1.40790       .     A
C130  N148   1.36767       .     A
C130  O154   1.34944       .     A
C131  C111   1.39616       .     A
C131  N147   1.36466       .     S
C131  O156   1.35026       .     A
C132  C112   1.39643       .     A
C132  N148   1.36447       .     A
C132  O155   1.35021       .     S
C133  H90    1.08381       .     A
C133  C135   1.39121       .     A
C133  C141   1.38788       .     A
C134  H89    1.08368       .     S
C134  C136   1.39140       .     A
C134  C142   1.39258       .     A
C135  C113   1.41835       .     A
C135  C133   1.39121       .     A
C135  O164   1.38429       .     A
C136  C114   1.40653       .     A
C136  C134   1.39140       .     A
C136  O163   1.38359       .     S
C137  C113   1.42769       .     S
C137  C139   1.41824       .     A
C137  C143   1.48565   1_455     A
C138  C114   1.41791       .     A
C138  C140   1.41734       .     S
C138  C144   1.48827       .     A
C139  C137   1.41824       .     A
C139  C141   1.41145       .     A
C139  C145   1.49059   1_455     A
C140  C138   1.41734       .     S
C140  C142   1.41758       .     S
C140  C146   1.49682       .     S
C141  C133   1.38788       .     S
C141  C139   1.41145       .     D
C141  N147   1.43241       .     S
C142  C134   1.39258       .     S
C142  C140   1.41758       .     D
C142  N148   1.43121       .     D
C143  H97    1.08268       .     S
C143  C137   1.48565   1_655     S
C143  O157   1.22117       .     S
C144  H98    1.08110   1_455     A
C144  C138   1.48827       .     A
C144  O158   1.22085       .     S
C145  H99    1.08430       .     A
C145  C139   1.49059   1_655     A
C145  O159   1.22113       .     S
C146  H100   1.08240   1_455     A
C146  C140   1.49682       .     D
C146  O160   1.22061   1_455     A
N147  C129   1.36775       .     S
N147  C131   1.36466       .     S
N147  C141   1.43241       .     S
N148  C130   1.36767       .     S
N148  C132   1.36447       .     D
N148  C142   1.43121       .     S
O149  Zn88   2.27199       .     S
O149  C125   1.30467       .     S
O150  Zn87   2.47129   1_554     S
O150  C126   1.29540       .     S
O151  Zn85   3.68266       .     S
O151  C125   1.30014       .     S
O152  Zn87   2.01942   1_554     S
O152  C126   1.29684       .     S
O153  C129   1.34942       .     S
O154  C130   1.34944       .     S
O155  C132   1.35021       .     S
O156  C131   1.35026       .     S
O157  C143   1.22117       .     S
O158  C144   1.22085       .     S
O159  C145   1.22113       .     S
O160  C146   1.22061   1_655     S
O161  H101   0.99169       .     S
O161  C109   1.38345       .     S
O162  H102   0.99161       .     S
O162  C110   1.38360       .     S
O163  H103   0.99181       .     S
O163  C136   1.38359       .     S
O164  H104   0.99185       .     S
O164  C135   1.38429       .     S
