data_I
_chemical_name_common  'nh3_gradient_2.0/cif/sample_0'
_cell_length_a 17.11202
_cell_length_b 17.75421
_cell_length_c 25.45971
_cell_angle_alpha 92.39606
_cell_angle_beta  91.60252
_cell_angle_gamma 77.04247
_space_group_name_H-M_alt      'P 1'


loop_
_space_group_symop_operation_xyz
  'x, y, z' 

loop_
_atom_site_label
_atom_site_fract_x
_atom_site_fract_y
_atom_site_fract_z
_atom_site_type_symbol
Cu0   0.46603343 0.3626278 0.76596785    Cu
Cu1   0.55090654 0.22867352 0.7258111    Cu
H2    0.74646586 0.33648458 0.8017138     H
H3    0.2627866 0.25906456 0.6872129     H
H4    0.8879753 0.3354872 0.8061395     H
H5    0.121283405 0.26007694 0.682773     H
H6    0.083042495 0.4017294 0.8254797     H
H7    0.9261939 0.19384627 0.66342854     H
C8    0.34082612 0.32607064 0.7600337     C
C9    0.66842544 0.26948282 0.72889435     C
C10   0.25572574 0.32849607 0.7597735     C
C11   0.7535248 0.26706144 0.72914827     C
C12   0.22456147 0.28988728 0.71802896     C
C13   0.784689 0.3056702 0.77089274     C
C14   0.14379735 0.29082158 0.7153614     C
C15   0.8654618 0.30474052 0.7735542     C
C16   0.09296252 0.33022702 0.75487316     C
C17   0.9162836 0.2653492 0.7340353     C
C18   0.12294181 0.37178898 0.79522276     C
C19   0.88629514 0.22378467 0.69368863     C
C20   0.20472568 0.37018389 0.7989887     C
C21   0.8045229 0.22538194 0.689928     C
N22   0.011824407 0.32689038 0.7563457     N
N23   0.9974217 0.26868585 0.7325628     N
N24   0.23504283 0.40690356 0.844047     N
N25   0.774196 0.18866175 0.64486945     N
O26   0.36635447 0.38457268 0.7776246     O
O27   0.64289707 0.21098079 0.7113035     O
O28   0.38906625 0.26658553 0.7404912     O
O29   0.62018526 0.3289679 0.74843687     O
O30   0.19329384 0.4718147 0.86379683     O
O31   0.2968186 0.36965728 0.870552     O
O32   0.8159445 0.123752624 0.6251163     O
O33   0.71241915 0.22591463 0.6183703     O
H34   0.6891354 0.3492926 0.19250214     H
H35   0.40097487 0.14719051 0.28175366     H
H36   0.6121641 0.26624852 0.024935316     H
H37   0.56535417 0.34019813 0.44000247     H
H38   0.36898217 0.36474088 0.068899326     H
H39   0.5785678 0.09560539 0.42694542     H
C40   0.57607424 0.1443591 0.5056642     C
C41   0.4146583 0.35246167 0.03913056     C
C42   0.5760767 0.14769803 0.45124897     C
C43   0.4925544 0.31265843 0.052355945     C
C44   0.57192826 0.21812236 0.42760652     C
C45   0.43717352 0.38531783 0.89614946     C
C46   0.5809857 0.20745729 0.5941129     C
C47   0.5521979 0.29774264 0.014531303     C
C48   0.56968623 0.28556758 0.45864618     C
C49   0.53517634 0.3238486 0.9639017     C
C50   0.507622 0.19739471 0.34442458     C
C51    0.57115 0.31426236 0.13235703     C
C52   0.62319696 0.2520695 0.3465866     C
C53   0.46763846 0.24344307 0.1274989     C
C54   0.61509013 0.26509976 0.29222447     C
C55   0.47839853 0.22686194 0.18127215     C
C56   0.55220455 0.24028675 0.26397228     C
C57   0.53993934 0.2534747 0.2098228     C
C58   0.5001924 0.20380308 0.29003158     C
C59   0.5731445 0.28276488 0.513216     C
C60   0.5882314 0.29493707 0.1845985     C
C61   0.66580766 0.30312675 0.26520404     C
C62   0.4294766 0.1864321 0.2078941     C
C63   0.6511286 0.3183687 0.2121968     C
C64   0.44026834 0.17639254 0.26177344     C
C65   0.7318634 0.33016008 0.29022396     C
C66   0.3656089 0.15647049 0.1823885     C
C67   0.45615858 0.36248097 0.9501443     C
C68   0.5995878 0.30858135 0.92663115     C
C69   0.5722221 0.3533772 0.543818     C
C70   0.31418017 0.41572824 0.9757526     C
C71   0.57836974 0.07038515 0.52810556     C
C72   0.5756525 0.21202436 0.5370882     C
C73   0.3956081 0.37611485 0.9880286     C
N74   0.5680335 0.22178406 0.37150517     N
N75   0.65117943 0.29646075 0.8968346     N
N76   0.57161015 0.4098919 0.56832075     N
N77   0.24893638 0.44734806 0.965885     N
N78   0.5800794 0.011189117 0.54604614     N
N79   0.5115017 0.2888515 0.10510707     N
N80   0.7848118 0.35193402 0.31004047     N
N81   0.31440818 0.13237411 0.1621956     N
O82   0.61263907 0.35975856 0.10921848     O
O83   0.6851794 0.26945037 0.37473777     O
O84   0.41392112 0.21500109 0.097513296     O
O85   0.37933484 0.36238158 0.8712269     O
O86   0.6372833 0.23245595 0.61937743     O
O87   0.5334697 0.17264894 0.6169992     O
O88   0.48314857 0.42218858 0.8736052     O
O89   0.45364818 0.16860735 0.37035277     O
C90   0.56822765 0.495286 0.73669845     C
C91   0.4453087 0.0993824 0.7522399     C
C92   0.56859237 0.5738847 0.73009986     C
C93   0.4450356 0.020755172 0.758828     C
C94   0.5177509 0.6324241 0.75927496     C
C95   0.49606857 0.9622523 0.72974867     C
C96   0.46642527 0.6104532 0.7943491     C
C97   0.547495 0.9842676 0.6947826     C
C98   0.46704772 0.53167766 0.8005928     C
C99   0.5468091 0.063070536 0.68855345     C
C100  0.5333484 0.76556253 0.7936031     C
C101  0.48045367 0.82910705 0.69537616     C
C102  0.5244918 0.84553266 0.7859371     C
C103  0.48930812 0.7491385 0.7030503     C
C104  0.49850595 0.8781046 0.73722124     C
C105  0.51532215 0.71656555 0.75177014     C
N106  0.5191896 0.47387105 0.7728807     N
N107  0.49451882 0.12086153 0.7161854     N
N108  0.40733588 0.514621 0.83327097     N
N109  0.60653675 0.08015168 0.6559023     N
N110  0.5625686 0.7346053 0.8435885     N
N111  0.4512021 0.8600744 0.6453786     N
N112  0.61738527 0.4390287 0.70276314     N
N113  0.3956769 0.1556108 0.7859689     N
O114  0.4277973 0.4818117 0.8777434     O
O115  0.3325754 0.5482506 0.82477546     O
O116  0.5860934 0.11293781 0.61142147     O
O117  0.6813005 0.046536207 0.66441983     O
O118  0.5418537 0.77456707 0.88699687     O
O119  0.61390555 0.6684783 0.84590006     O
O120  0.40038568 0.92650676 0.64304286     O
O121  0.47126645 0.81983715 0.60200214     O
O122  0.69452405 0.43333232 0.7040031     O
O123  0.5851163 0.41415516 0.6605962     O
O124  0.42763337 0.18158424 0.8278647     O
O125  0.3186795 0.16048372 0.78486454     O
F126  0.4141409 0.6657957 0.8220813     F
F127  0.5998934 0.92894983 0.66711086     F
F128  0.5452756 0.8914325 0.82550097     F
F129  0.46847036 0.7032258 0.66351116     F
F130  0.6179728 0.5928728 0.69448227     F
F131  0.3955216 0.0016908646 0.7943214     F
loop_
_geom_bond_atom_site_label_1
_geom_bond_atom_site_label_2
_geom_bond_distance
_geom_bond_site_symmetry_2
_ccdc_geom_bond_type
Cu0   Cu1    2.67234       .     S
Cu0   O26    1.69409       .     S
Cu0   O29    2.61748       .     D
Cu0   O85    3.09984       .     S
Cu0   O88    2.92670       .     S
Cu0   N106   2.35091       .     D
Cu1   Cu0    2.67234       .     D
Cu1   O27    1.58559       .     S
Cu1   O28    2.73190       .     A
Cu1   O86    3.13303       .     A
Cu1   O87    2.93420       .     S
Cu1   N107   2.33040       .     A
H2    C13    1.08407       .     A
H3    C12    1.08404       .     S
H4    C15    1.08316       .     A
H5    C14    1.08320       .     S
H6    C18    1.08377       .     A
H7    C19    1.08381       .     S
C8    C10    1.44703       .     S
C8    O26    1.27431       .     S
C8    O28    1.27766       .     A
C9    C11    1.44703       .     A
C9    O27    1.27431       .     S
C9    O29    1.27766       .     S
C10   C8     1.44703       .     A
C10   C12    1.39826       .     A
C10   C20    1.41546       .     S
C11   C9     1.44703       .     A
C11   C13    1.39826       .     A
C11   C21    1.41548       .     S
C12   H3     1.08404       .     D
C12   C10    1.39826       .     S
C12   C14    1.37822       .     D
C13   H2     1.08407       .     D
C13   C11    1.39826       .     S
C13   C15    1.37838       .     D
C14   H5     1.08320       .     S
C14   C12    1.37822       .     S
C14   C16    1.40545       .     D
C15   H4     1.08316       .     D
C15   C13    1.37838       .     S
C15   C17    1.40538       .     A
C16   C14    1.40545       .     A
C16   C18    1.39280       .     S
C16   N22    1.40451       .     A
C17   C15    1.40538       .     A
C17   C19    1.39285       .     S
C17   N23    1.40451       .     A
C18   H6     1.08377       .     S
C18   C16    1.39280       .     A
C18   C20    1.39406       .     S
C19   H7     1.08381       .     S
C19   C17    1.39285       .     S
C19   C21    1.39389       .     A
C20   C10    1.41546       .     A
C20   C18    1.39406       .     S
C20   N24    1.43736       .     S
C21   C11    1.41548       .     A
C21   C19    1.39389       .     A
C21   N25    1.43744       .     S
N22   C16    1.40451       .     A
N22   N23    1.24451   1_455     A
N23   C17    1.40451       .     S
N23   N22    1.24451   1_655     D
N24   C20    1.43736       .     S
N24   O30    1.30145       .     D
N24   O31    1.30156       .     D
N25   C21    1.43744       .     S
N25   O32    1.30145       .     D
N25   O33    1.30154       .     S
O26   Cu0    1.69409       .     S
O26   C8     1.27431       .     T
O27   Cu1    1.58559       .     S
O27   C9     1.27431       .     T
O28   Cu1    2.73190       .     A
O28   C8     1.27766       .     A
O29   Cu0    2.61748       .     S
O29   C9     1.27766       .     A
O30   N24    1.30145       .     A
O31   N24    1.30156       .     S
O32   N25    1.30145       .     A
O33   N25    1.30154       .     A
H34   C63    1.08500       .     S
H35   C64    1.08499       .     S
H36   C47    1.08428       .     D
H37   C48    1.08436       .     D
H38   C41    1.08433       .     S
H39   C42    1.08444       .     S
C40   C42    1.38914       .     S
C40   C71    1.44611       .     S
C40   C72    1.41401       .     T
C41   H38    1.08433       .     A
C41   C43    1.40068       .     A
C41   C73    1.39137   1_554     A
C42   H39    1.08444       .     A
C42   C40    1.38914       .     S
C42   C44    1.39693       .     S
C43   C41    1.40068       .     A
C43   C47    1.39700       .     A
C43   N79    1.43149       .     A
C44   C42    1.39693       .     S
C44   C48    1.40065       .     A
C44   N74    1.43153       .     A
C45   C67    1.45680       .     A
C45   O85    1.29307       .     S
C45   O88    1.29016       .     A
C46   C72    1.45665       .     T
C46   O86    1.29307       .     S
C46   O87    1.29016       .     S
C47   H36    1.08428       .     S
C47   C43    1.39700       .     D
C47   C49    1.38911   1_554     S
C48   H37    1.08436       .     D
C48   C44    1.40065       .     S
C48   C59    1.39143       .     S
C49   C47    1.38911   1_556     A
C49   C67    1.41391       .     A
C49   C68    1.44629       .     S
C50   C58    1.39417       .     A
C50   N74    1.36654       .     A
C50   O89    1.35057       .     S
C51   C60    1.39414       .     A
C51   N79    1.36654       .     A
C51   O82    1.35052       .     S
C52   C54    1.41067       .     T
C52   N74    1.36832       .     S
C52   O83    1.34894       .     T
C53   C55    1.41073       .     D
C53   N79    1.36823       .     S
C53   O84    1.34886       .     D
C54   C52    1.41067       .     S
C54   C56    1.41854       .     S
C54   C61    1.42031       .     T
C55   C53    1.41073       .     S
C55   C57    1.41853       .     T
C55   C62    1.42034       .     A
C56   C54    1.41854       .     A
C56   C57    1.41006       .     S
C56   C58    1.40691       .     A
C57   C55    1.41853       .     A
C57   C56    1.41006       .     S
C57   C60    1.40685       .     A
C58   C50    1.39417       .     A
C58   C56    1.40691       .     S
C58   C64    1.39970       .     S
C59   C48    1.39143       .     D
C59   C69    1.44537       .     D
C59   C72    1.40955       .     S
C60   C51    1.39414       .     S
C60   C57    1.40685       .     S
C60   C63    1.39973       .     S
C61   C54    1.42031       .     T
C61   C63    1.39237       .     A
C61   C65    1.44612       .     A
C62   C55    1.42034       .     A
C62   C64    1.39251       .     A
C62   C66    1.44611       .     S
C63   H34    1.08500       .     S
C63   C60    1.39973       .     A
C63   C61    1.39237       .     A
C64   H35    1.08499       .     A
C64   C58    1.39970       .     S
C64   C62    1.39251       .     A
C65   C61    1.44612       .     A
C65   N80    1.15764       .     A
C66   C62    1.44611       .     S
C66   N81    1.15736       .     A
C67   C45    1.45680       .     T
C67   C49    1.41391       .     S
C67   C73    1.40939       .     S
C68   C49    1.44629       .     S
C68   N75    1.15750       .     D
C69   C59    1.44537       .     S
C69   N76    1.15730       .     D
C70   C73    1.44514       .     S
C70   N77    1.15748       .     S
C71   C40    1.44611       .     A
C71   N78    1.15743       .     A
C72   C40    1.41401       .     S
C72   C46    1.45665       .     A
C72   C59    1.40955       .     A
C73   C41    1.39137   1_556     S
C73   C67    1.40939       .     A
C73   C70    1.44514       .     A
N74   C44    1.43153       .     S
N74   C50    1.36654       .     T
N74   C52    1.36832       .     S
N75   C68    1.15750       .     T
N76   C69    1.15730       .     D
N77   C70    1.15748       .     S
N78   C71    1.15743       .     D
N79   C43    1.43149       .     D
N79   C51    1.36654       .     S
N79   C53    1.36823       .     D
N80   C65    1.15764       .     S
N81   C66    1.15736       .     D
O82   C51    1.35052       .     D
O83   C52    1.34894       .     S
O84   C53    1.34886       .     A
O85   Cu0    3.09984       .     A
O85   C45    1.29307       .     S
O86   Cu1    3.13303       .     A
O86   C46    1.29307       .     S
O87   Cu1    2.93420       .     D
O87   C46    1.29016       .     S
O88   Cu0    2.92670       .     A
O88   C45    1.29016       .     A
O89   C50    1.35057       .     A
C90   C92    1.41391       .     A
C90   N106   1.38307       .     A
C90   N112   1.42947       .     A
C91   C93    1.41401       .     A
C91   N107   1.38335       .     S
C91   N113   1.42976       .     A
C92   C90    1.41391       .     A
C92   C94    1.39818       .     S
C92   F130   1.35873       .     A
C93   C91    1.41401       .     A
C93   C95    1.39809   1_545     A
C93   F131   1.35869       .     A
C94   C92    1.39818       .     S
C94   C96    1.39556       .     S
C94   C105   1.50514       .     A
C95   C93    1.39809   1_565     S
C95   C97    1.39530       .     S
C95   C104   1.50508       .     D
C96   C94    1.39556       .     D
C96   C98    1.41183       .     D
C96   F126   1.35923       .     A
C97   C95    1.39530       .     S
C97   C99    1.41202   1_565     S
C97   F127   1.35920       .     D
C98   C96    1.41183       .     D
C98   N106   1.38247       .     D
C98   N108   1.42665       .     D
C99   C97    1.41202   1_545     D
C99   N107   1.38255       .     S
C99   N109   1.42661       .     D
C100  C102   1.41490       .     S
C100  C105   1.41800       .     D
C100  N110   1.43920       .     D
C101  C103   1.41491       .     S
C101  C104   1.41837       .     A
C101  N111   1.43966       .     A
C102  C100   1.41490       .     S
C102  C104   1.40864       .     A
C102  F128   1.35886       .     S
C103  C101   1.41491       .     D
C103  C105   1.40884       .     S
C103  F129   1.35890       .     A
C104  C95    1.50508       .     A
C104  C101   1.41837       .     A
C104  C102   1.40864       .     A
C105  C94    1.50514       .     A
C105  C100   1.41800       .     A
C105  C103   1.40884       .     A
N106  Cu0    2.35091       .     S
N106  C90    1.38307       .     A
N106  C98    1.38247       .     A
N107  Cu1    2.33040       .     S
N107  C91    1.38335       .     A
N107  C99    1.38255       .     A
N108  C98    1.42665       .     A
N108  O114   1.29824       .     A
N108  O115   1.30102       .     S
N109  C99    1.42661       .     S
N109  O116   1.29821       .     A
N109  O117   1.30110       .     S
N110  C100   1.43920       .     S
N110  O118   1.30153       .     D
N110  O119   1.30150       .     D
N111  C101   1.43966       .     D
N111  O120   1.30147       .     A
N111  O121   1.30118       .     S
N112  C90    1.42947       .     S
N112  O122   1.30065       .     D
N112  O123   1.29962       .     D
N113  C91    1.42976       .     D
N113  O124   1.29953       .     S
N113  O125   1.30050       .     S
O114  N108   1.29824       .     S
O115  N108   1.30102       .     S
O116  N109   1.29821       .     S
O117  N109   1.30110       .     S
O118  N110   1.30153       .     S
O119  N110   1.30150       .     S
O120  N111   1.30147       .     S
O121  N111   1.30118       .     S
O122  N112   1.30065       .     S
O123  N112   1.29962       .     S
O124  N113   1.29953       .     S
O125  N113   1.30050       .     S
F126  C96    1.35923       .     S
F127  C97    1.35920       .     S
F128  C102   1.35886       .     S
F129  C103   1.35890       .     S
F130  C92    1.35873       .     S
F131  C93    1.35869       .     S
