data_I
_chemical_name_common  'nh3_gradient_2.0_v2/cif/sample_1'
_cell_length_a 15.35462
_cell_length_b 15.91752
_cell_length_c 15.40647
_cell_angle_alpha 95.72401
_cell_angle_beta  116.47993
_cell_angle_gamma 95.48949
_space_group_name_H-M_alt      'P 1'


loop_
_space_group_symop_operation_xyz
  'x, y, z' 

loop_
_atom_site_label
_atom_site_fract_x
_atom_site_fract_y
_atom_site_fract_z
_atom_site_type_symbol
Zn0   0.8974459 0.1558924 0.1776418    Zn
Zn1   0.91359645 0.07535581 0.36514148    Zn
H2    0.92632556 0.80236316 0.79619235     H
H3    0.98007965 0.622523 0.77719265     H
H4    0.94496256 0.6062314 0.90620023     H
H5    0.0345304 0.7970018 0.97582096     H
C6    0.9872951 0.66424894 0.9574366     C
C7    0.9479594 0.6791672 0.7532354     C
C8    0.9535341 0.74388736 0.81931937     C
C9    0.9953728 0.73839355 0.924608     C
C10   0.050171494 0.6562398 0.059788704     C
C11   0.8825876 0.67495257 0.6484772     C
O12   0.09472561 0.7240676 0.12216997     O
O13   0.8447718 0.7406396 0.61717266     O
O14   0.07076669 0.582796 0.07937837     O
O15   0.8532185 0.601835 0.5954034     O
Zn16  0.3675305 0.5469559  0.26153    Zn
Zn17  0.5907644 0.6387114 0.41012844    Zn
Zn18  0.6932573 0.8073319 0.5903413    Zn
Zn19  0.85866517 0.74789083 0.78600234    Zn
C20   0.76909095 0.80498934 0.49658576     C
C21   0.829996 0.036022663 0.43479893     C
C22   0.78240496 0.88839805 0.4748272     C
C23   0.79838943 0.9576537 0.45621467     C
O24   0.78111166 0.057234764 0.3514627     O
O25   0.91768795 0.06941569 0.48912072     O
O26   0.697909 0.7528315 0.42519587     O
O27    0.84944 0.77438366 0.5428999     O
H28   0.73732996 0.35865098 0.55004644     H
H29   0.59924495 0.43475005 0.4616255     H
H30   0.8061879 0.62360096 0.3936618     H
H31   0.945043 0.5511222 0.4792695     H
H32   0.90303373 0.66917336 0.2993958     H
H33     0.7814 0.6991442 0.2591609     H
H34   0.7351542 0.63576156 0.08740171     H
H35   0.8430232 0.71718276 0.13756628     H
H36   0.85637057 0.6054352 0.127593     H
H37   0.06552935 0.5970698 0.41906208     H
H38   0.14855337 0.5627594 0.31803125     H
H39   0.078287244 0.43760327 0.18514825     H
H40   0.9244233 0.34526408 0.154047     H
H41   0.83950365 0.37853256 0.25253215     H
C42   0.9064648 0.3622481 0.53414863     C
C43   0.5857353 0.53585273 0.32586858     C
C44   0.82083386 0.44786733 0.4040675     C
C45   0.8232894  0.40429 0.4792851     C
C46   0.73988104 0.3956869 0.4957009     C
C47   0.6615123 0.43930206 0.44593397     C
C48   0.6652373 0.48992136 0.37785313     C
C49   0.74256885 0.4896146 0.3539027     C
C50   0.80696934 0.5637817 0.34964493     C
C51   0.8941753 0.5171582 0.4037614     C
C52   0.8236146 0.6510991 0.24540477     C
C53   0.81386346 0.6523419 0.14294763     C
C54   0.94676805 0.49022314 0.34468347     C
C55   0.03444016 0.54145694 0.36203316     C
C56   0.081410766 0.52254915 0.3045416     C
C57   0.041648746 0.45207474 0.22944093     C
C58   0.9550451 0.4000976 0.21197529     C
C59   0.9075003 0.41891977 0.26891166     C
O60   0.99492323 0.3977305 0.5564656     O
O61   0.8884766 0.28879973 0.5569267     O
O62   0.55812186 0.58823425 0.37484193     O
O63   0.5438123 0.5212903 0.23115894     O
O64   0.78526825 0.5687934 0.25107586     O
H65   0.9406202 0.033924818 0.8680925     H
H66   0.03929329 0.068722606 0.07753909     H
H67   0.9876966 0.8912472 0.07806885     H
H68   0.7125591 0.8961585 0.87614465     H
H69   0.76418406 0.07129121 0.87296903     H
H70   0.81192625 0.9283983 0.083189845     H
O71   0.76041555 0.12424886 0.056203604     O
C72   0.88859224 0.84239036 0.8604673     C
C73   0.8482797 0.11066651 0.0914377     C
C74   0.7865531 0.9350506 0.9213716     C
C75   0.8147327 0.029957771 0.91829276     C
C76   0.9660591 0.028977156 0.03138089     C
C77   0.9377291 0.9334606 0.03374648     C
C78   0.9115486 0.011178374 0.917372     C
C79   0.84114194 0.951948 0.034311533     C
C80   0.8829477 0.9169614 0.9213546     C
C81   0.86932445 0.046429396 0.030977488     C
O82   0.96091264 0.80136037 0.90641207     O
O83   0.9070147 0.12982523 0.18273818     O
O84   0.8040147 0.7963777 0.80277896     O
H85   0.2697685 0.26019278 0.38150844     H
H86   0.10793944 0.17503624 0.35570288     H
H87   0.13290955 0.29477552 0.17435141     H
H88   0.031003794 0.3193645 0.23564996     H
C89   0.9367043 0.23583096 0.27226725     C
C90   0.028928202 0.26466668 0.2719923     C
C91   0.20067553 0.29883695 0.24208434     C
C92   0.2014778 0.26017827 0.31567705     C
C93   0.10857073 0.22648902 0.31461406     C
C94   0.2846805 0.35791066 0.25408897     C
O95   0.87058824 0.28279972 0.23441653     O
O96   0.36736345 0.36265847 0.32698157     O
O97   0.27073762 0.40931427 0.19502412     O
O98   0.9442957 0.21048714 0.35166734     O
loop_
_geom_bond_atom_site_label_1
_geom_bond_atom_site_label_2
_geom_bond_distance
_geom_bond_site_symmetry_2
_ccdc_geom_bond_type
Zn0   Zn1    3.19534       .     S
Zn0   O24    4.17090       .     S
Zn0   O60    6.14390       .     D
Zn0   O71    2.06879       .     S
Zn0   O83    0.45584       .     S
Zn1   Zn0    3.19534       .     S
Zn1   O25    1.89511       .     S
Zn1   O61    4.43698       .     S
Zn1   O95    3.99414       .     S
Zn1   O98    2.20777       .     S
H2    C8     1.08428       .     S
H3    C7     1.08699       .     S
H4    C6     1.08657       .     S
H5    C9     1.08496   1_455     D
C6    H4     1.08657       .     S
C6    C9     1.34576       .     D
C6    C10    1.46319   1_656     S
C7    H3     1.08699       .     S
C7    C8     1.34215       .     S
C7    C11    1.46209       .     S
C8    H2     1.08428       .     S
C8    C7     1.34215       .     S
C8    C9     1.47017       .     S
C9    H5     1.08496   1_655     S
C9    C6     1.34576       .     S
C9    C8     1.47017       .     S
C10   C6     1.46319   1_454     D
C10   O12    1.27385       .     S
C10   O14    1.27034       .     S
C11   C7     1.46209       .     S
C11   O13    1.27671       .     S
C11   O15    1.26785       .     S
O12   C10    1.27385       .     D
O12   Zn16   5.05473       .     S
O13   C11    1.27671       .     S
O13   Zn18   2.53232       .     T
O14   C10    1.27034       .     S
O14   Zn16   4.28690       .     S
O15   C11    1.26785       .     S
O15   Zn17   3.90654       .     D
Zn16  O12    5.05473       .     S
Zn16  O14    4.28690       .     S
Zn16  Zn17   3.24046       .     T
Zn16  O96    3.19586       .     S
Zn16  O97    2.37277       .     S
Zn17  O15    3.90654       .     S
Zn17  Zn16   3.24046       .     S
Zn17  O26    2.25027       .     S
Zn17  O62    0.88609       .     A
Zn17  O63    2.92528       .     A
Zn18  O13    2.53232       .     A
Zn18  Zn19   3.26096       .     S
Zn18  O84    2.97346       .     A
Zn19  Zn18   3.26096       .     S
Zn19  O27    3.75219       .     A
Zn19  O82    1.86084       .     S
C20   C22    1.41944       .     A
C20   O26    1.29065       .     S
C20   O27    1.29145       .     S
C21   C23    1.41759   1_545     S
C21   O24    1.26547       .     S
C21   O25    1.25114       .     S
C22   C20    1.41944       .     S
C22   C23    1.19656       .     D
C23   C21    1.41759   1_565     S
C23   C22    1.19656       .     S
O24   Zn0    4.17090       .     S
O24   C21    1.26547       .     S
O25   Zn1    1.89511       .     S
O25   C21    1.25114       .     S
O26   Zn17   2.25027       .     S
O26   C20    1.29065       .     S
O27   Zn19   3.75219       .     A
O27   C20    1.29145       .     A
H28   C46    1.08323       .     S
H29   C47    1.08359       .     S
H30   C50    1.11683       .     A
H31   C51    1.11315       .     A
H32   C52    1.11459       .     S
H33   C52    1.11128       .     A
H34   C53    1.11095       .     A
H35   C53    1.11101       .     S
H36   C53    1.11136       .     D
H37   C55    1.08325       .     S
H38   C56    1.08252       .     S
H39   C57    1.08212       .     S
H40   C58    1.08225       .     S
H41   C59    1.08226       .     A
C42   C45    1.45156       .     A
C42   O60    1.29618       .     A
C42   O61    1.29335       .     S
C43   C48    1.44285       .     A
C43   O62    1.29293       .     S
C43   O63    1.28979       .     A
C44   C45    1.39708       .     S
C44   C49    1.38204       .     A
C44   C51    1.50093       .     S
C45   C42    1.45156       .     S
C45   C44    1.39708       .     S
C45   C46    1.40894       .     S
C46   H28    1.08323       .     S
C46   C45    1.40894       .     S
C46   C47    1.40039       .     D
C47   H29    1.08359       .     S
C47   C46    1.40039       .     S
C47   C48    1.40211       .     S
C48   C43    1.44285       .     S
C48   C47    1.40211       .     S
C48   C49    1.39196       .     S
C49   C44    1.38204       .     S
C49   C48    1.39196       .     S
C49   C50    1.49190       .     A
C50   H30    1.11683       .     A
C50   C49    1.49190       .     S
C50   C51    1.53520       .     S
C50   O64    1.41476       .     A
C51   H31    1.11315       .     A
C51   C44    1.50093       .     S
C51   C50    1.53520       .     A
C51   C54    1.51929       .     A
C52   H32    1.11459       .     S
C52   H33    1.11128       .     D
C52   C53    1.52004       .     S
C52   O64    1.41131       .     S
C53   H34    1.11095       .     S
C53   H35    1.11101       .     D
C53   H36    1.11136       .     S
C53   C52    1.52004       .     S
C54   C51    1.51929       .     S
C54   C55    1.40509   1_655     S
C54   C59    1.41123       .     S
C55   H37    1.08325       .     S
C55   C54    1.40509   1_455     S
C55   C56    1.39760       .     S
C56   H38    1.08252       .     S
C56   C55    1.39760       .     S
C56   C57    1.39641       .     S
C57   H39    1.08212       .     S
C57   C56    1.39641       .     S
C57   C58    1.39685   1_455     D
C58   H40    1.08225       .     S
C58   C57    1.39685   1_655     S
C58   C59    1.39738       .     S
C59   H41    1.08226       .     S
C59   C54    1.41123       .     S
C59   C58    1.39738       .     S
O60   Zn0    6.14390       .     S
O60   C42    1.29618       .     S
O61   Zn1    4.43698       .     S
O61   C42    1.29335       .     D
O62   Zn17   0.88609       .     S
O62   C43    1.29293       .     S
O63   Zn17   2.92528       .     S
O63   C43    1.28979       .     S
O64   C50    1.41476       .     S
O64   C52    1.41131       .     S
H65   C78    1.11036       .     S
H66   C76    1.10971   1_455     S
H67   C77    1.10877       .     S
H68   C74    1.11041       .     S
H69   C75    1.10856       .     S
H70   C79    1.11095       .     S
O71   Zn0    2.06879       .     S
O71   C73    1.26003       .     D
C72   C80    1.47190       .     S
C72   O82    1.30027       .     S
C72   O84    1.29296       .     S
C73   O71    1.26003       .     S
C73   C81    1.46942       .     S
C73   O83    1.27101       .     S
C74   H68    1.11041       .     S
C74   C75    1.54246   1_565     S
C74   C79    1.53800   1_556     D
C74   C80    1.53476       .     S
C75   H69    1.10856       .     S
C75   C74    1.54246   1_545     S
C75   C78    1.54998       .     S
C75   C81    1.53452   1_556     S
C76   H66    1.10971   1_655     S
C76   C77    1.54944   1_545     S
C76   C78    1.55253   1_554     D
C76   C81    1.53442       .     S
C77   H67    1.10877       .     S
C77   C76    1.54944   1_565     D
C77   C79    1.54293       .     S
C77   C80    1.53068   1_554     D
C78   H65    1.11036       .     S
C78   C75    1.54998       .     S
C78   C76    1.55253   1_556     S
C78   C80    1.53691   1_545     S
C79   H70    1.11095       .     S
C79   C74    1.53800   1_554     S
C79   C77    1.54293       .     S
C79   C81    1.53700   1_565     D
C80   C72    1.47190       .     S
C80   C74    1.53476       .     S
C80   C77    1.53068   1_556     D
C80   C78    1.53691   1_565     S
C81   C73    1.46942       .     S
C81   C75    1.53452   1_554     S
C81   C76    1.53442       .     S
C81   C79    1.53700   1_545     S
O82   Zn19   1.86084       .     S
O82   C72    1.30027       .     S
O83   Zn0    0.45584       .     S
O83   C73    1.27101       .     S
O84   Zn18   2.97346       .     S
O84   C72    1.29296       .     S
H85   C92    1.08613       .     S
H86   C93    1.08580       .     S
H87   C91    1.08683       .     S
H88   C90    1.08646       .     S
C89   C90    1.44821   1_655     S
C89   O95    1.27822       .     S
C89   O98    1.28569       .     S
C90   H88    1.08646       .     S
C90   C89    1.44821   1_455     S
C90   C93    1.34224       .     S
C91   H87    1.08683       .     S
C91   C92    1.33884       .     S
C91   C94    1.45005       .     S
C92   H85    1.08613       .     S
C92   C91    1.33884       .     S
C92   C93    1.46763       .     S
C93   H86    1.08580       .     S
C93   C90    1.34224       .     S
C93   C92    1.46763       .     S
C94   C91    1.45005       .     S
C94   O96    1.25378       .     S
C94   O97    1.24567       .     S
O95   Zn1    3.99414       .     S
O95   C89    1.27822       .     S
O96   Zn16   3.19586       .     S
O96   C94    1.25378       .     S
O97   Zn16   2.37277       .     S
O97   C94    1.24567       .     S
O98   Zn1    2.20777       .     S
O98   C89    1.28569       .     S
