data_I
_chemical_name_common  'nh3_gradient_2.0_v2/cif/sample_3'
_cell_length_a 10.14140
_cell_length_b 10.86775
_cell_length_c 14.69757
_cell_angle_alpha 91.69595
_cell_angle_beta  105.74468
_cell_angle_gamma 94.08745
_space_group_name_H-M_alt      'P 1'


loop_
_space_group_symop_operation_xyz
  'x, y, z' 

loop_
_atom_site_label
_atom_site_fract_x
_atom_site_fract_y
_atom_site_fract_z
_atom_site_type_symbol
Zn0   0.48060817 0.3948679 0.5511391    Zn
Zn1   0.50008607 0.67545503 0.5505611    Zn
C2    0.9108176 0.52670443 0.53309953     C
C3    0.068155766 0.5435558 0.5657634     C
C4    0.85041934 0.67187965 0.4207106     C
C5    0.12858641 0.39842382 0.6781773     C
H6    0.8877363 0.48195127 0.65956473     H
H7    0.091237426 0.58826566 0.43928963     H
H8    0.90562195 0.6866196 0.36582023     H
H9    0.90088886 0.7353462 0.48349836     H
H10   0.74479455 0.6987702 0.3897068     H
H11   0.07810342 0.3349344 0.6154064     H
H12   0.07341659 0.3836838 0.7330841     H
H13   0.23421967 0.37154955 0.709172     H
N14   0.14095914 0.5836931 0.50980467     N
N15   0.83801264 0.48655468 0.5890526     N
O16   0.84319055 0.5449978 0.43956804     O
O17   0.13578427 0.5253028 0.6592967     O
C18   0.4263863 0.5270856 0.36635765     C
C19   0.4452891 0.531209 0.26829287     C
C20   0.4611785 0.5345484 0.18664587     C
C21   0.4807747 0.5378637 0.08924646     C
C22   0.49762845 0.5402829 0.007444122     C
C23   0.5175741 0.5433231 0.9100555     C
C24   0.5340017 0.5458705 0.82846177     C
C25   0.55457866 0.5477316 0.73075783     C
O26   0.33447948 0.45375678 0.38556817     O
O27   0.63710165 0.4777724 0.7065146     O
O28   0.4903694 0.61806023 0.6682991     O
O29   0.5004149 0.59749705 0.4352179     O
H30   0.63161933 0.19888662 0.599834     H
H31   0.68943274 0.99245936 0.6296825     H
H32   0.21279943 0.16557392 0.3461085     H
H33   0.1262887 0.1525546 0.44201228     H
H34   0.13823749 0.02345792 0.3705822     H
H35   0.25519052 0.75101644 0.50412875     H
H36   0.32221356 0.7207165 0.39637214     H
H37   0.19133563 0.8225542 0.396256     H
C38   0.40985754 0.3007684 0.513722     C
C39   0.56457114 0.7731831 0.5782421     C
C40   0.5508944 0.12925991 0.5636172     C
C41   0.58768594 0.9982421 0.58091813     C
C42   0.42983326 0.16907194 0.5148773     C
C43   0.5109122 0.89086676 0.5455533     C
C44   0.19545735 0.110170536 0.40508395     C
C45   0.287271 0.7896411 0.4417337     C
O46   0.4796751 0.684821 0.5452518     O
O47   0.2918508 0.3207144 0.46905258     O
O48   0.6878395 0.7551442 0.6292673     O
O49   0.500029 0.39099082 0.5530737     O
O50   0.3176907 0.08081278 0.47465682     O
O51   0.3931873 0.89141786 0.46454513     O
loop_
_geom_bond_atom_site_label_1
_geom_bond_atom_site_label_2
_geom_bond_distance
_geom_bond_site_symmetry_2
_ccdc_geom_bond_type
Zn0   Zn1    3.04207       .     S
Zn0   N15    3.57730       .     S
Zn0   O26    2.60727       .     S
Zn0   O27    2.50060       .     S
Zn0   O47    2.05878       .     D
Zn0   O49    0.19897       .     S
Zn1   Zn0    3.04207       .     S
Zn1   N14    3.58897       .     S
Zn1   O28    1.88174       .     S
Zn1   O29    1.87355       .     S
Zn1   O46    0.23239       .     S
Zn1   O48    2.05523       .     S
C2    C3     1.53214   1_655     D
C2    N15    1.31022       .     S
C2    O16    1.38694       .     S
C3    C2     1.53214   1_455     S
C3    N14    1.31023       .     S
C3    O17    1.38688       .     S
C4    H8     1.10901       .     S
C4    H9     1.11579       .     D
C4    H10    1.10819       .     S
C4    O16    1.41522       .     S
C5    H11    1.11578       .     S
C5    H12    1.10899       .     S
C5    H13    1.10818       .     S
C5    O17    1.41526       .     S
H6    N15    1.02658       .     S
H7    N14    1.02658       .     D
H8    C4     1.10901       .     S
H9    C4     1.11579       .     S
H10   C4     1.10819       .     S
H11   C5     1.11578       .     S
H12   C5     1.10899       .     D
H13   C5     1.10818       .     D
N14   Zn1    3.58897       .     S
N14   C3     1.31023       .     S
N14   H7     1.02658       .     T
N15   Zn0    3.57730       .     S
N15   C2     1.31022       .     T
N15   H6     1.02658       .     S
O16   C2     1.38694       .     T
O16   C4     1.41522       .     S
O17   C3     1.38688       .     S
O17   C5     1.41526       .     D
C18   C19    1.50622       .     D
C18   O26    1.27820       .     S
C18   O29    1.27804       .     S
C19   C18    1.50622       .     T
C19   C20    1.25459       .     S
C20   C19    1.25459       .     T
C20   C21    1.49884       .     S
C21   C20    1.49884       .     T
C21   C22    1.26023       .     S
C22   C21    1.26023       .     S
C22   C23    1.49994   1_554     D
C23   C22    1.49994   1_556     S
C23   C24    1.25555       .     S
C24   C23    1.25555       .     S
C24   C25    1.50660       .     S
C25   C24    1.50660       .     S
C25   O27    1.28138       .     S
C25   O28    1.28023       .     S
O26   Zn0    2.60727       .     D
O26   C18    1.27820       .     S
O27   Zn0    2.50060       .     S
O27   C25    1.28138       .     S
O28   Zn1    1.88174       .     S
O28   C25    1.28023       .     S
O29   Zn1    1.87355       .     S
O29   C18    1.27804       .     S
H30   C40    1.08512       .     S
H31   C41    1.09221       .     S
H32   C44    1.11505       .     S
H33   C44    1.11207       .     D
H34   C44    1.10273       .     S
H35   C45    1.13502       .     D
H36   C45    1.12590       .     S
H37   C45    1.11001       .     S
C38   C42    1.45969       .     S
C38   O47    1.23663       .     S
C38   O49    1.29759       .     S
C39   C43    1.46846       .     S
C39   O46    1.23554       .     S
C39   O48    1.30326       .     D
C40   H30    1.08512       .     S
C40   C41    1.50896   1_545     S
C40   C42    1.35072       .     S
C41   H31    1.09221       .     S
C41   C40    1.50896   1_565     S
C41   C43    1.36126       .     S
C42   C38    1.45969       .     S
C42   C40    1.35072       .     S
C42   O50    1.41738       .     S
C43   C39    1.46846       .     S
C43   C41    1.36126       .     D
C43   O51    1.43979       .     S
C44   H32    1.11505       .     S
C44   H33    1.11207       .     S
C44   H34    1.10273       .     S
C44   O50    1.43939       .     S
C45   H35    1.13502       .     S
C45   H36    1.12590       .     S
C45   H37    1.11001       .     S
C45   O51    1.45012       .     S
O46   Zn1    0.23239       .     S
O46   C39    1.23554       .     S
O47   Zn0    2.05878       .     S
O47   C38    1.23663       .     S
O48   Zn1    2.05523       .     S
O48   C39    1.30326       .     S
O49   Zn0    0.19897       .     S
O49   C38    1.29759       .     S
O50   C42    1.41738       .     S
O50   C44    1.43939       .     S
O51   C43    1.43979       .     S
O51   C45    1.45012       .     S
