data_I
_chemical_name_common  'nh3_gradient_2.0_v2/cif/sample_2'
_cell_length_a 12.21459
_cell_length_b 12.43406
_cell_length_c 15.52450
_cell_angle_alpha 99.21043
_cell_angle_beta  104.28207
_cell_angle_gamma 91.71008
_space_group_name_H-M_alt      'P 1'


loop_
_space_group_symop_operation_xyz
  'x, y, z' 

loop_
_atom_site_label
_atom_site_fract_x
_atom_site_fract_y
_atom_site_fract_z
_atom_site_type_symbol
H0    0.4236324 0.038934782 0.67593133     H
H1    0.07577761 0.14586036 0.607315     H
C2    0.21296747 0.9490428 0.66216576     C
C3    0.19385193 0.13935243 0.73802567     C
C4    0.2617085 0.06077127 0.70647097     C
C5    0.3736941 0.09471501 0.70858735     C
C6    0.41663957 0.20409524 0.7426453     C
C7    0.35391977 0.27797788 0.7863015     C
C8    0.2390501 0.24744505 0.7751634     C
C9    0.14261109 0.2921082 0.71357447     C
C10   0.08873382 0.17585298 0.68089426     C
C11   0.4016426 0.3905649 0.8300721     C
C12   0.5093046 0.24696772 0.71279544     C
C13   0.18277551 0.33572245 0.64290774     C
C14   0.08150837 0.37076107 0.762454     C
C15   0.988628 0.14982773 0.71293074     C
N16   0.58146244 0.2834286 0.6875228     N
N17   0.2194135 0.3668197 0.58872485     N
N18   0.033466373 0.4323524 0.80084777     N
N19   0.9100218 0.12989636 0.7381462     N
O20   0.108301476 0.9376701 0.61476475     O
O21   0.2779711 0.86864835 0.6731292     O
O22   0.3362013 0.4707476 0.8200269     O
O23   0.50593984 0.40169302 0.8784176     O
Br24  0.058526516 0.7098872 0.5973428    Br
Br25  0.62053174 0.8134554 0.59571296    Br
Br26  0.98786545 0.52923524 0.8984827    Br
C27   0.82329476 0.64315784 0.7833202     C
C28   0.7851026 0.6995328 0.7108755     C
C29   0.9663465 0.680333 0.6754216     C
C30   0.64205074 0.6623577 0.8187741     C
C31   0.8582114 0.71755594 0.65722245     C
C32   0.7501859 0.6251346 0.83697313     C
C33   0.93380815 0.6064322 0.7999096     C
C34   0.67458904 0.7362585 0.694286     C
Br35  0.5498736 0.6328067 0.8968614    Br
H36   0.8331472 0.7602957 0.60089505     H
H37   0.7752475 0.58238536 0.8933016     H
N38   0.605432 0.71706665 0.7483116     N
N39   0.0029654503 0.625624 0.7458841     N
Zn40  0.4263985 0.71152234 0.78973955    Zn
Zn41  0.17924577 0.625777 0.70030344    Zn
H42   0.5974925 0.80338496 0.35457548     H
H43   0.9938379 0.75378925 0.1692771     H
H44   0.3340666 0.6769906 0.4554112     H
H45   0.26731032 0.753002 0.031597715     H
H46   0.98165685 0.64794254 0.4479842     H
H47   0.62013364 0.72651017 0.05204805     H
H48   0.66280645 0.7753752 0.2165753     H
H49   0.93308866 0.69520205 0.29584825     H
H50   0.44718266 0.78981465 0.42778566     H
H51   0.14106625 0.79138136 0.09817837     H
C52   0.42358726 0.78195333 0.3551496     C
C53   0.16738108 0.7733556 0.16560188     C
C54   0.5107524 0.792606 0.3137384     C
C55   0.08130681 0.7527161 0.2065434     C
C56   0.4096342 0.6957638 0.9349688     C
C57   0.19813181 0.65333056 0.5581385     C
C58   0.4385417 0.7298203 0.032646485     C
C59   0.16273013 0.6630212 0.46272448     C
C60   0.5753896 0.76907885 0.17748158     C
C61   0.021403274 0.69490105 0.33125806     C
C62   0.5512238 0.7412724 0.08396004     C
C63   0.048833605 0.6658099 0.4169843     C
C64   0.35153952 0.7545722 0.074299745     C
C65   0.24760103 0.6880226 0.42198458     C
C66   0.3724421 0.7730829 0.16835308     C
C67   0.22256958 0.72695446 0.34053093     C
C68   0.4867164 0.78005236 0.22016837     C
C69   0.10774246 0.7253426 0.2925972     C
C70   0.2828371 0.7717882 0.2116307     C
C71   0.30985537 0.7610051 0.30358818     C
O72   0.48504815 0.7135288 0.892716     O
O73   0.1241596 0.6287362 0.60044193     O
O74   0.30709437 0.656748 0.8927018     O
O75   0.30211332 0.68551695 0.6004562     O
loop_
_geom_bond_atom_site_label_1
_geom_bond_atom_site_label_2
_geom_bond_distance
_geom_bond_site_symmetry_2
_ccdc_geom_bond_type
H0    C5     1.08416       .     D
H1    C10    1.11348       .     S
C2    C4     1.48332   1_565     T
C2    O20    1.29911       .     S
C2    O21    1.30147       .     S
C3    C4     1.40609       .     A
C3    C8     1.41217       .     A
C3    C10    1.49766       .     S
C4    C2     1.48332   1_545     A
C4    C3     1.40609       .     S
C4    C5     1.41038       .     S
C5    H0     1.08416       .     T
C5    C4     1.41038       .     T
C5    C6     1.41238       .     S
C6    C5     1.41238       .     A
C6    C7     1.41033       .     S
C6    C12    1.44288       .     T
C7    C6     1.41033       .     S
C7    C8     1.40363       .     A
C7    C11    1.48749       .     S
C8    C3     1.41217       .     A
C8    C7     1.40363       .     S
C8    C9     1.50450       .     S
C9    C8     1.50450       .     D
C9    C10    1.52438       .     S
C9    C13    1.47596       .     D
C9    C14    1.47469       .     S
C10   H1     1.11348       .     T
C10   C3     1.49766       .     S
C10   C9     1.52438       .     S
C10   C15    1.47484   1_455     A
C11   C7     1.48749       .     A
C11   O22    1.30119       .     S
C11   O23    1.29995       .     A
C12   C6     1.44288       .     S
C12   N16    1.15759       .     S
C13   C9     1.47596       .     T
C13   N17    1.15623       .     T
C14   C9     1.47469       .     S
C14   N18    1.15732       .     A
C15   C10    1.47484   1_655     S
C15   N19    1.15708       .     T
N16   C12    1.15759       .     S
N17   C13    1.15623       .     A
N18   C14    1.15732       .     S
N19   C15    1.15708       .     A
O20   C2     1.29911       .     S
O20   Zn41   4.33998       .     S
O21   C2     1.30147       .     D
O21   Zn40   3.17890       .     S
O22   C11    1.30119       .     S
O22   Zn41   3.23346       .     S
O23   C11    1.29995       .     S
O23   Zn40   4.35221       .     A
Br24  C29    1.91398   1_455     A
Br25  C34    1.92579       .     A
Br26  C33    1.92579       .     A
C27   C28    1.40957       .     A
C27   C32    1.39866       .     A
C27   C33    1.41419       .     A
C28   C27    1.40957       .     A
C28   C31    1.39866       .     A
C28   C34    1.41419       .     A
C29   Br24   1.91398   1_655     S
C29   C31    1.39027       .     A
C29   N39    1.36908   1_655     S
C30   C32    1.39027       .     S
C30   Br35   1.91405       .     S
C30   N38    1.36908       .     S
C31   C28    1.39866       .     S
C31   C29    1.39027       .     A
C31   H36    1.08037       .     A
C32   C27    1.39866       .     A
C32   C30    1.39027       .     A
C32   H37    1.08046       .     A
C33   Br26   1.92579       .     A
C33   C27    1.41419       .     A
C33   N39    1.36951   1_655     A
C34   Br25   1.92579       .     A
C34   C28    1.41419       .     A
C34   N38    1.36951       .     S
Br35  C30    1.91405       .     A
H36   C31    1.08037       .     S
H37   C32    1.08046       .     S
N38   C30    1.36908       .     S
N38   C34    1.36951       .     S
N38   Zn40   2.42893       .     S
N39   C29    1.36908   1_455     S
N39   C33    1.36951   1_455     A
N39   Zn41   2.42670       .     A
Zn40  O21    3.17890       .     S
Zn40  O23    4.35221       .     A
Zn40  N38    2.42893       .     A
Zn40  Zn41   3.07311       .     A
Zn40  O72    1.57818       .     A
Zn40  O75    2.91713       .     A
Zn41  O20    4.33998       .     A
Zn41  O22    3.23346       .     S
Zn41  N39    2.42670       .     S
Zn41  Zn40   3.07311       .     A
Zn41  O73    1.53707       .     A
Zn41  O74    2.96698       .     A
H42   C54    1.08413       .     A
H43   C55    1.08384   1_655     A
H44   C65    1.07915       .     A
H45   C64    1.07540       .     S
H46   C63    1.08279   1_655     A
H47   C62    1.08326       .     A
H48   C60    1.08381       .     A
H49   C61    1.08359   1_655     S
H50   C52    1.08022       .     A
H51   C53    1.07823       .     A
C52   H50    1.08022       .     S
C52   C54    1.38599       .     S
C52   C71    1.41472       .     D
C53   H51    1.07823       .     S
C53   C55    1.39321       .     S
C53   C70    1.41728       .     A
C54   H42    1.08413       .     A
C54   C52    1.38599       .     S
C54   C68    1.39102       .     D
C55   H43    1.08384   1_455     S
C55   C53    1.39321       .     S
C55   C69    1.39432       .     S
C56   C58    1.45767   1_556     S
C56   O72    1.28839       .     A
C56   O74    1.30037       .     A
C57   C59    1.46282       .     S
C57   O73    1.29684       .     A
C57   O75    1.29565       .     A
C58   C56    1.45767   1_554     A
C58   C62    1.40010       .     A
C58   C64    1.39178       .     A
C59   C57    1.46282       .     A
C59   C63    1.40151       .     S
C59   C65    1.39231       .     S
C60   H48    1.08381       .     A
C60   C62    1.39154       .     A
C60   C68    1.40175       .     A
C61   H49    1.08359   1_455     A
C61   C63    1.39843       .     A
C61   C69    1.40601       .     A
C62   H47    1.08326       .     S
C62   C58    1.40010       .     A
C62   C60    1.39154       .     A
C63   H46    1.08279   1_455     A
C63   C59    1.40151       .     S
C63   C61    1.39843       .     A
C64   H45    1.07540       .     A
C64   C58    1.39178       .     S
C64   C66    1.39826       .     S
C65   H44    1.07915       .     D
C65   C59    1.39231       .     S
C65   C67    1.39315       .     S
C66   C64    1.39826       .     A
C66   C68    1.42104       .     A
C66   C70    1.41943       .     S
C67   C65    1.39315       .     D
C67   C69    1.41419       .     S
C67   C71    1.41328       .     S
C68   C54    1.39102       .     S
C68   C60    1.40175       .     S
C68   C66    1.42104       .     S
C69   C55    1.39432       .     S
C69   C61    1.40601       .     S
C69   C67    1.41419       .     S
C70   C53    1.41728       .     S
C70   C66    1.41943       .     S
C70   C71    1.41293       .     S
C71   C52    1.41472       .     S
C71   C67    1.41328       .     S
C71   C70    1.41293       .     S
O72   Zn40   1.57818       .     S
O72   C56    1.28839       .     S
O73   Zn41   1.53707       .     S
O73   C57    1.29684       .     S
O74   Zn41   2.96698       .     S
O74   C56    1.30037       .     S
O75   Zn40   2.91713       .     S
O75   C57    1.29565       .     S
