data_I
_chemical_name_common  'nh3_gradient_5.00/cif/sample_3'
_cell_length_a 18.14363
_cell_length_b 22.34401
_cell_length_c 32.67516
_cell_angle_alpha 85.90322
_cell_angle_beta  90.99415
_cell_angle_gamma 82.51770
_space_group_name_H-M_alt      'P 1'


loop_
_space_group_symop_operation_xyz
  'x, y, z' 

loop_
_atom_site_label
_atom_site_fract_x
_atom_site_fract_y
_atom_site_fract_z
_atom_site_type_symbol
H0    0.37522978 0.011931658 0.8925323     H
H1    0.30446553 0.14357054 0.6863839     H
H2    0.42608163 0.3012237 0.7760229     H
H3    0.25375226 0.8542353 0.8026224     H
H4    0.41866684 0.4116307 0.7735376     H
H5    0.26123542 0.74383134 0.8050583     H
H6    0.18385641 0.4261872 0.7937835     H
H7    0.49621147  0.72936 0.78532016     H
H8    0.025746671 0.27877542 0.78973573     H
H9    0.050649103 0.27292237 0.8439446     H
H10   0.98486274 0.33515802 0.8225049     H
H11   0.10720938 0.36912474 0.8343845     H
H12   0.08300079 0.37409315 0.7800589     H
H13   0.16299404 0.27580142 0.7727364     H
H14   0.18495508 0.26914263 0.8268524     H
H15   0.6290841 0.8830109 0.73525786     H
H16   0.65429205 0.876644 0.7894355     H
H17   0.69496405 0.82060826 0.7563525     H
H18   0.5970346 0.7813581 0.7988381     H
H19   0.5725965 0.7867061 0.7445281     H
H20   0.49502304 0.88665223 0.7524598     H
H21   0.51701516 0.8794823 0.80657816     H
C22   0.2957544 0.49251056 0.782201     C
C23   0.38426647 0.6629793 0.7966134     C
C24   0.34712008 0.9533801 0.7544498     C
C25   0.33274096 0.20211229 0.8244565     C
C26   0.37068394 0.9473757 0.8268412     C
C27   0.30911288 0.20812294 0.75207025     C
C28   0.36091852 0.010568527 0.8268564     C
C29   0.3188547 0.14492853 0.7520579     C
C30   0.3452804 0.045827273 0.78949255     C
C31   0.33450454 0.10968123 0.7894186     C
C32   0.3402996 0.01728149 0.7523196     C
C33   0.33948645 0.1382165 0.82659173     C
C34   0.36499405 0.038849425 0.8635822     C
C35   0.31473318 0.116655126 0.71533436     C
C36   0.35303184 0.10183683 0.86407286     C
C37   0.32669765 0.05366778 0.71484065     C
C38   0.37301648 0.32818133 0.7800961     C
C39   0.30686066 0.8272954 0.7986502     C
C40   0.3686459 0.39082727 0.7787915     C
C41   0.3112783 0.76465183 0.79992723     C
C42   0.30020759 0.4262367 0.7835801     C
C43   0.37978336 0.7292626 0.7952589     C
C44   0.2360494 0.39807346 0.7899446     C
C45   0.4439597 0.75744385 0.7890516     C
C46   0.2397858 0.33454144 0.7919298     C
C47   0.4401709 0.82099444 0.78709054     C
C48   0.30940595 0.29990342 0.7866125     C
C49   0.37049457 0.85559183 0.79229116     C
C50   0.17210935 0.30195045 0.79966223     C
C51   0.099374816 0.34253612 0.80751383     C
C52   0.036366608 0.30482247 0.8164539     C
C53   0.5078629 0.8536144 0.77952456     C
C54   0.58055604 0.8130933 0.7714825     C
C55   0.643517 0.850881 0.76260984     C
N56   0.36344567 0.9203682 0.79108727     N
N57   0.3164013 0.23513414 0.78782177     N
N58   0.35115442 0.12725289 0.9031798     N
N59   0.3284747 0.028244637 0.67573845     N
O60   0.23186693 0.52533036 0.7748521     O
O61   0.4481608 0.6301596 0.803953     O
O62   0.3556527 0.51682276 0.78850204     O
O63   0.32437503 0.6386672 0.79030305     O
O64   0.33607557 0.924086 0.72065455     O
O65   0.34389147 0.231403 0.8582408     O
O66   0.38655993 0.9129603 0.8623331     O
O67   0.29320794 0.2425365 0.71658105     O
O68   0.4041602 0.109290026 0.9303449     O
O69   0.28959778 0.15711677 0.9148071     O
O70   0.27529722 0.046101872 0.64865416     O
O71   0.39004573 0.99851716 0.6640181     O
Cu72  0.2693174 0.59858155 0.7795977    Cu
Cu73  0.41000593 0.55697036 0.8024227    Cu
H74   0.22295311 0.53074545 0.5107231     H
H75   0.4634563 0.6226991 0.06686551     H
H76   0.34083647 0.4184343 0.3950721     H
H77   0.34865567 0.73709136 0.18365055     H
H78   0.24733754 0.5565124 0.99625456     H
H79   0.43411642 0.5999313 0.5841041     H
H80   0.41691643 0.43544883 0.19119692     H
H81   0.2724351 0.7201153 0.38750857     H
H82   0.4160829 0.43095025 0.26444972     H
H83   0.27419513 0.7246816 0.31429923     H
H84   0.26585907 0.43744585 0.5942564     H
H85   0.18810962 0.45624232 0.55757165     H
H86   0.17786616 0.44911137 0.6514017     H
H87   0.1010614 0.46691886 0.61560416     H
H88   0.13043606 0.36521724 0.58743757     H
H89   0.1137241 0.3589785 0.64172816     H
H90   0.2077516 0.34691304 0.6239685     H
H91   0.52964497 0.69863886 0.9718123     H
H92   0.49606502 0.6952316 0.022521071     H
H93   0.3964239 0.72465366 0.94376475     H
H94   0.36616614 0.73008585 0.9956154     H
H95   0.44847596  0.80999 0.0055660526     H
H96   0.38176706 0.83125675 0.96378785     H
H97   0.4774548 0.80574316 0.9529616     H
H98   0.20788701 0.63559014 0.10869609     H
H99   0.1050687 0.60040134 0.14812876     H
H100  0.068620965 0.49886283 0.13932946     H
H101  0.13584107 0.43211606 0.09089791     H
H102  0.23997895 0.4659209 0.05182742     H
H103  0.44413725 0.6901772 0.52930397     H
H104  0.5500134 0.7242092 0.49194446     H
H105  0.6195025 0.6578725 0.4440818     H
H106  0.58356476 0.55649376 0.4341326     H
H107  0.4790091 0.52106595 0.4718383     H
H108  0.23290142 0.45445624 0.27845377     H
H109  0.20848434 0.3634698 0.24462596     H
H110  0.2852402 0.26482278 0.26290858     H
H111  0.386787 0.25707942 0.315515     H
H112  0.41367802 0.3478083 0.34886444     H
H113  0.2766645 0.8078331 0.2298951     H
H114  0.30389076 0.8985123 0.26319447     H
H115  0.40552843 0.89062864 0.31574658     H
H116  0.48206493 0.79188293 0.33402652     H
H117  0.45731914 0.7009317 0.3002585     H
C118  0.3273387 0.5707693 0.3753651     C
C119  0.36215064 0.5847794 0.20342365     C
C120  0.33622035 0.51454365 0.39825067     C
C121  0.35298422 0.6409987 0.1805263     C
C122  0.3420664 0.46150172 0.37773266     C
C123  0.34755757 0.6940355 0.20102872     C
C124  0.31029323 0.62402076 0.39580566     C
C125  0.37882227 0.53150797 0.18295994     C
C126  0.32856932 0.56691366 0.5902213     C
C127  0.35306674 0.5886545 0.9886627     C
C128  0.36449337 0.5241729 0.26910582     C
C129  0.32563934 0.631401 0.30970868     C
C130  0.34143198 0.6359018 0.2671129     C
C131  0.34869203 0.51965684 0.31170225     C
C132  0.35542253 0.5816863 0.24670908     C
C133  0.3345463 0.57387304 0.33210787     C
C134  0.3942054 0.47347176 0.24836339     C
C135  0.29587474 0.6821256 0.33041337     C
C136  0.39795738 0.47642034 0.2058926     C
C137  0.29158553 0.67914283 0.37284654     C
C138  0.3296296 0.5692278 0.6348696     C
C139  0.3508121 0.5852777 0.9440951     C
C140  0.3429611 0.46346822 0.33480844     C
C141  0.3470933 0.69207144 0.2439711     C
O142  0.34241715 0.69630855 0.11503111     O
O143  0.39273158 0.48409823 0.120023675     O
O144  0.294775 0.6713732 0.4586856     O
C145  0.3351276 0.51285607 0.4413169     C
C146  0.35317624 0.6426514 0.13744943     C
C147  0.3097577 0.6204587 0.43880287     C
C148  0.37835777 0.5350301 0.13995667     C
C149  0.38926175 0.5830193 0.5252934     C
C150  0.29511255 0.57313967 0.054412946     C
C151  0.38835263 0.58451533 0.56802386     C
C152  0.29397365 0.57167435 0.011677792     C
C153  0.26977232 0.5450326 0.56988955     C
C154  0.41325274 0.61011577 0.008065768     C
C155  0.26958853 0.5447136 0.526973     C
C156  0.41561362 0.60999763 0.05105405     C
C157  0.32873765 0.5633895 0.50463307     C
C158  0.3570179 0.59204006 0.0741992     C
C159  0.20959815 0.46391267 0.588596     C
C160  0.15732512 0.44111913 0.6204483     C
C161  0.15217815 0.37382644 0.61815464     C
C162  0.4810475 0.6888685 0.9901593     C
C163  0.41358972 0.73446786 0.97503465     C
C164  0.43167692 0.79935557 0.9743252     C
C165  0.23242617 0.5529705 0.07781339     C
C166  0.19345587 0.5907695 0.10498569     C
C167  0.13475828 0.5711446 0.12717235     C
C168  0.114119984 0.5139523 0.12215749     C
C169  0.15199798 0.47633687 0.09485828     C
C170  0.21085653 0.49571356 0.072703876     C
C171  0.45290157 0.603407 0.5028593     C
C172  0.47422644 0.6605539 0.5086606     C
C173  0.53406954 0.68006146 0.4874798     C
C174  0.57323194 0.6426811 0.46049058     C
C175  0.55287224 0.58558154 0.45482048     C
C176  0.4931807 0.5658348 0.476024     C
C177  0.32578972 0.40811807 0.31582823     C
C178   0.26707 0.41168502 0.28667727     C
C179  0.25319055 0.3602795 0.26736602     C
C180  0.2964431 0.30464238 0.27769142     C
C181  0.35356247 0.30027488 0.30742157     C
C182  0.3682797 0.3517008 0.32647067     C
C183  0.3644775 0.747404 0.2629108     C
C184  0.32211283 0.8038719 0.25226176     C
C185  0.33701777 0.8552757 0.27128655     C
C186  0.3941938 0.8508255 0.3009908     C
C187  0.43731844 0.7951329 0.31131455     C
C188  0.42325106 0.74374926 0.2920361     C
N189  0.32473308 0.56554884 0.4606307     N
N190  0.3628675 0.5899208 0.11815893     N
O191  0.2705372 0.59255356 0.65257597     O
O192  0.40970388 0.5616796 0.9264071     O
O193  0.3896529 0.5474634 0.6556045     O
O194  0.2905881 0.60676974 0.9233786     O
O195  0.34559938 0.4591755 0.46372452     O
O196  0.2116663 0.52631706 0.59225136     O
O197  0.4703238 0.6282784 0.98436713     O
H198  0.80708444 0.49221435 0.8356328     H
H199  0.86990476 0.6665535 0.74640423     H
H200  0.7391485 0.64950746 0.7529771     H
H201  0.9381583 0.50717777 0.8271119     H
H202  0.5155899 0.6281805 0.8310848     H
H203  0.14769971 0.6221659 0.8370283     H
H204  0.56238234 0.45677722 0.78542954     H
H205  0.12709868 0.6085251 0.70940334     H
H206  0.60771793 0.6973238 0.8376573     H
H207  0.04783988 0.61036897 0.88402975     H
H208  0.685965 0.4137622 0.76588255     H
H209  0.011968851 0.5944998 0.6748721     H
C210  0.5558518 0.5942899 0.81921774     C
C211  0.113919616 0.61558586 0.8106058     C
C212  0.58211154 0.4981061 0.79344124     C
C213  0.10245061 0.6078685 0.739246     C
C214  0.6307683 0.6041201 0.81652945     C
C215  0.038538575 0.60862297 0.8159551     C
C216  0.6569071 0.50628346 0.78729993     C
C217  0.028076768 0.59668326 0.7425864     C
C218  0.682959 0.55993867 0.79958147     C
C219  0.9942028 0.597874 0.78154004     C
C220  0.8202944 0.53010714 0.8158307     C
C221  0.8567819 0.6281133 0.7656876     C
C222   0.78215 0.61845905 0.76951504     C
C223  0.8950738 0.538744 0.81106365     C
C224  0.9142265 0.58811855 0.78616965     C
C225  0.7629212 0.5696008 0.7948796     C
C226  0.6509932 0.66017616 0.8331376     C
C227  0.009317756 0.615008 0.85784537     C
C228  0.7037518 0.45821145 0.7668407     C
C229  0.99001575 0.58226234 0.704568     C
N230  0.5330615 0.54193825 0.8083612     N
N231  0.14451587 0.61604106 0.77282727     N
O232  0.71472096 0.66490406  0.84364     O
O233  0.94309515 0.6280042 0.86369354     O
O234  0.7604226 0.4678413 0.7493782     O
O235  0.93633336 0.5545148 0.7056626     O
loop_
_geom_bond_atom_site_label_1
_geom_bond_atom_site_label_2
_geom_bond_distance
_geom_bond_site_symmetry_2
_ccdc_geom_bond_type
H0    C34    1.08378       .     D
H1    C35    1.08381       .     S
H2    C38    1.08276       .     S
H3    C39    1.08264       .     A
H4    C40    1.08309       .     A
H5    C41    1.08308       .     S
H6    C44    1.08053       .     S
H7    C45    1.08047       .     A
H8    C52    1.11084       .     A
H9    C52    1.11104       .     S
H10   C52    1.11012   1_655     S
H11   C51    1.11186       .     S
H12   C51    1.11177       .     S
H13   C50    1.11191       .     A
H14   C50    1.11188       .     S
H15   C55    1.11084       .     S
H16   C55    1.11057       .     A
H17   C55    1.11022       .     S
H18   C54    1.11181       .     S
H19   C54    1.11182       .     S
H20   C53    1.11178       .     S
H21   C53    1.11175       .     S
C22   C42    1.46989       .     S
C22   O60    1.29725       .     D
C22   O62    1.29635       .     D
C23   C43    1.47009       .     S
C23   O61    1.29731       .     S
C23   O63    1.29630       .     S
C24   C32    1.41361   1_565     S
C24   N56    1.36732       .     D
C24   O64    1.34824       .     A
C25   C33    1.41354       .     A
C25   N57    1.36738       .     A
C25   O65    1.34827       .     A
C26   C28    1.40001   1_565     D
C26   N56    1.36466       .     S
C26   O66    1.35000       .     S
C27   C29    1.40004       .     A
C27   N57    1.36476       .     A
C27   O67    1.34998       .     A
C28   C26    1.40001   1_545     S
C28   C30    1.40855       .     A
C28   C34    1.40081       .     A
C29   C27    1.40004       .     A
C29   C31    1.40837       .     S
C29   C35    1.40074       .     A
C30   C28    1.40855       .     D
C30   C31    1.41446       .     D
C30   C32    1.41853       .     S
C31   C29    1.40837       .     S
C31   C30    1.41446       .     S
C31   C33    1.41841       .     D
C32   C24    1.41361   1_545     S
C32   C30    1.41853       .     D
C32   C37    1.42008       .     S
C33   C25    1.41354       .     S
C33   C31    1.41841       .     S
C33   C36    1.41998       .     S
C34   H0     1.08378       .     S
C34   C28    1.40081       .     S
C34   C36    1.39711       .     S
C35   H1     1.08381       .     S
C35   C29    1.40074       .     S
C35   C37    1.39711       .     A
C36   C33    1.41998       .     A
C36   C34    1.39711       .     S
C36   N58    1.43411       .     A
C37   C32    1.42008       .     A
C37   C35    1.39711       .     S
C37   N59    1.43406       .     S
C38   H2     1.08276       .     S
C38   C40    1.38920       .     A
C38   C48    1.39850       .     S
C39   H3     1.08264       .     A
C39   C41    1.38913       .     S
C39   C49    1.39842       .     D
C40   H4     1.08309       .     S
C40   C38    1.38920       .     D
C40   C42    1.40032       .     S
C41   H5     1.08308       .     S
C41   C39    1.38913       .     A
C41   C43    1.40045       .     A
C42   C22    1.46989       .     S
C42   C40    1.40032       .     S
C42   C44    1.40526       .     A
C43   C23    1.47009       .     A
C43   C41    1.40045       .     S
C43   C45    1.40511       .     S
C44   H6     1.08053       .     S
C44   C42    1.40526       .     S
C44   C46    1.40911       .     A
C45   H7     1.08047       .     S
C45   C43    1.40511       .     S
C45   C47    1.40946       .     A
C46   C44    1.40911       .     S
C46   C48    1.41315       .     S
C46   C50    1.52290       .     S
C47   C45    1.40946       .     S
C47   C49    1.41292       .     S
C47   C53    1.52273       .     S
C48   C38    1.39850       .     D
C48   C46    1.41315       .     D
C48   N57    1.43384       .     S
C49   C39    1.39842       .     S
C49   C47    1.41292       .     S
C49   N56    1.43396       .     S
C50   H13    1.11191       .     D
C50   H14    1.11188       .     A
C50   C46    1.52290       .     A
C50   C51    1.53721       .     A
C51   H11    1.11186       .     A
C51   H12    1.11177       .     D
C51   C50    1.53721       .     S
C51   C52    1.52632       .     S
C52   H8     1.11084       .     A
C52   H9     1.11104       .     A
C52   H10    1.11012   1_455     A
C52   C51    1.52632       .     S
C53   H20    1.11178       .     A
C53   H21    1.11175       .     A
C53   C47    1.52273       .     A
C53   C54    1.53732       .     S
C54   H18    1.11181       .     A
C54   H19    1.11182       .     D
C54   C53    1.53732       .     D
C54   C55    1.52630       .     S
C55   H15    1.11084       .     S
C55   H16    1.11057       .     S
C55   H17    1.11022       .     D
C55   C54    1.52630       .     S
N56   C24    1.36732       .     D
N56   C26    1.36466       .     S
N56   C49    1.43396       .     S
N57   C25    1.36738       .     S
N57   C27    1.36476       .     S
N57   C48    1.43384       .     S
N58   C36    1.43411       .     S
N58   O68    1.30108       .     S
N58   O69    1.30147       .     S
N59   C37    1.43406       .     S
N59   O70    1.30114       .     A
N59   O71    1.30145   1_545     A
O60   C22    1.29725       .     S
O60   Cu72   1.86732       .     A
O61   C23    1.29731       .     A
O61   Cu73   1.86048       .     S
O62   C22    1.29635       .     S
O62   Cu73   1.50242       .     S
O63   C23    1.29630       .     A
O63   Cu72   1.47924       .     S
O64   C24    1.34824       .     A
O65   C25    1.34827       .     S
O66   C26    1.35000       .     D
O67   C27    1.34998       .     S
O68   N58    1.30108       .     S
O69   N58    1.30147       .     S
O70   N59    1.30114       .     D
O71   N59    1.30145   1_565     S
Cu72  O60    1.86732       .     S
Cu72  O63    1.47924       .     S
Cu72  Cu73   2.67455       .     S
Cu72  O191   4.16259       .     S
Cu72  O194   4.72573       .     S
Cu72  N231   2.25137       .     S
Cu73  O61    1.86048       .     S
Cu73  O62    1.50242       .     S
Cu73  Cu72   2.67455       .     S
Cu73  O192   4.06016       .     S
Cu73  O193   4.82703       .     S
Cu73  N230   2.21713       .     A
H74   C155   1.08266       .     A
H75   C156   1.08190       .     S
H76   C122   1.08427       .     S
H77   C123   1.08429       .     A
H78   C152   1.08119   1_556     A
H79   C151   1.08137       .     S
H80   C136   1.08329       .     S
H81   C137   1.08350       .     A
H82   C134   1.07690       .     A
H83   C135   1.07702       .     S
H84   C159   1.11648       .     A
H85   C159   1.11244       .     A
H86   C160   1.10625       .     S
H87   C160   1.10795       .     A
H88   C161   1.11068       .     S
H89   C161   1.11022       .     A
H90   C161   1.11063       .     S
H91   C162   1.11098       .     A
H92   C162   1.11094   1_554     D
H93   C163   1.10807       .     S
H94   C163   1.11121       .     S
H95   C164   1.11091   1_554     D
H96   C164   1.11025       .     A
H97   C164   1.11098       .     S
H98   C166   1.08201       .     S
H99   C167   1.08233       .     S
H100  C168   1.08237       .     S
H101  C169   1.08229       .     A
H102  C170   1.08325       .     A
H103  C172   1.08333       .     A
H104  C173   1.08233       .     A
H105  C174   1.08227       .     S
H106  C175   1.08215       .     S
H107  C176   1.08202       .     A
H108  C178   1.08309       .     A
H109  C179   1.08239       .     A
H110  C180   1.08229       .     S
H111  C181   1.08228       .     S
H112  C182   1.08295       .     S
H113  C184   1.08294       .     A
H114  C185   1.08224       .     A
H115  C186   1.08221       .     A
H116  C187   1.08221       .     S
H117  C188   1.08308       .     A
C118  C120   1.40439       .     S
C118  C124   1.40796       .     A
C118  C133   1.41933       .     A
C119  C121   1.40441       .     A
C119  C125   1.40797       .     A
C119  C132   1.41926       .     A
C120  C118   1.40439       .     A
C120  C122   1.39593       .     A
C120  C145   1.40556       .     A
C121  C119   1.40441       .     S
C121  C123   1.39577       .     S
C121  C146   1.40547       .     A
C122  H76    1.08427       .     A
C122  C120   1.39593       .     S
C122  C140   1.40055       .     A
C123  H77    1.08429       .     S
C123  C121   1.39577       .     A
C123  C141   1.40090       .     A
C124  C118   1.40796       .     A
C124  C137   1.39471       .     A
C124  C147   1.40178       .     S
C125  C119   1.40797       .     A
C125  C136   1.39463       .     S
C125  C148   1.40153       .     A
C126  C138   1.46337       .     A
C126  C151   1.39819       .     S
C126  C153   1.40573       .     S
C127  C139   1.46372       .     S
C127  C152   1.39720   1_556     A
C127  C154   1.40718   1_556     A
C128  C131   1.42510       .     A
C128  C132   1.42142       .     S
C128  C134   1.41304       .     A
C129  C130   1.42504       .     A
C129  C133   1.42177       .     A
C129  C135   1.41306       .     S
C130  C129   1.42504       .     A
C130  C132   1.42041       .     S
C130  C141   1.43463       .     S
C131  C128   1.42510       .     S
C131  C133   1.42067       .     S
C131  C140   1.43470       .     D
C132  C119   1.41926       .     S
C132  C128   1.42142       .     S
C132  C130   1.42041       .     D
C133  C118   1.41933       .     A
C133  C129   1.42177       .     A
C133  C131   1.42067       .     A
C134  H82    1.07690       .     S
C134  C128   1.41304       .     S
C134  C136   1.38787       .     A
C135  H83    1.07702       .     S
C135  C129   1.41306       .     A
C135  C137   1.38737       .     A
C136  H80    1.08329       .     S
C136  C125   1.39463       .     A
C136  C134   1.38787       .     A
C137  H81    1.08350       .     S
C137  C124   1.39471       .     S
C137  C135   1.38737       .     A
C138  C126   1.46337       .     A
C138  O191   1.29420       .     S
C138  O193   1.29264       .     S
C139  C127   1.46372       .     A
C139  O192   1.29306       .     S
C139  O194   1.29383       .     A
C140  C122   1.40055       .     S
C140  C131   1.43470       .     S
C140  C177   1.48811       .     S
C141  C123   1.40090       .     S
C141  C130   1.43463       .     S
C141  C183   1.48834       .     S
O142  C146   1.34933       .     S
O143  C148   1.34975       .     S
O144  C147   1.34958       .     S
C145  C120   1.40556       .     S
C145  N189   1.36839       .     D
C145  O195   1.34951       .     S
C146  C121   1.40547       .     D
C146  O142   1.34933       .     S
C146  N190   1.36836       .     S
C147  C124   1.40178       .     S
C147  O144   1.34958       .     S
C147  N189   1.36720       .     S
C148  C125   1.40153       .     S
C148  O143   1.34975       .     S
C148  N190   1.36711       .     S
C149  C151   1.39934       .     S
C149  C157   1.41280       .     S
C149  C171   1.48214       .     S
C150  C152   1.39896       .     S
C150  C158   1.41253       .     A
C150  C165   1.48180       .     A
C151  H79    1.08137       .     S
C151  C126   1.39819       .     S
C151  C149   1.39934       .     A
C152  H78    1.08119   1_554     A
C152  C127   1.39720   1_554     S
C152  C150   1.39896       .     S
C153  C126   1.40573       .     A
C153  C155   1.40278       .     A
C153  O196   1.38496       .     S
C154  C127   1.40718   1_554     A
C154  C156   1.40436       .     A
C154  O197   1.38885   1_554     S
C155  H74    1.08266       .     A
C155  C153   1.40278       .     S
C155  C157   1.39964       .     A
C156  H75    1.08190       .     S
C156  C154   1.40436       .     A
C156  C158   1.39959       .     D
C157  C149   1.41280       .     S
C157  C155   1.39964       .     S
C157  N189   1.43540       .     D
C158  C150   1.41253       .     A
C158  C156   1.39959       .     S
C158  N190   1.43541       .     S
C159  H84    1.11648       .     S
C159  H85    1.11244       .     S
C159  C160   1.52526       .     A
C159  O196   1.41322       .     A
C160  H86    1.10625       .     A
C160  H87    1.10795       .     A
C160  C159   1.52526       .     S
C160  C161   1.52563       .     S
C161  H88    1.11068       .     A
C161  H89    1.11022       .     A
C161  H90    1.11063       .     A
C161  C160   1.52563       .     S
C162  H91    1.11098       .     S
C162  H92    1.11093   1_556     S
C162  C163   1.53708       .     A
C162  O197   1.41791       .     A
C163  H93    1.10807       .     A
C163  H94    1.11121       .     S
C163  C162   1.53708       .     A
C163  C164   1.52633       .     S
C164  H95    1.11091   1_556     A
C164  H96    1.11025       .     A
C164  H97    1.11098       .     A
C164  C163   1.52633       .     A
C165  C150   1.48180       .     A
C165  C166   1.40533       .     A
C165  C170   1.40585       .     A
C166  H98    1.08201       .     A
C166  C165   1.40533       .     S
C166  C167   1.39822       .     S
C167  H99    1.08233       .     A
C167  C166   1.39822       .     A
C167  C168   1.39733       .     S
C168  H100   1.08237       .     A
C168  C167   1.39733       .     S
C168  C169   1.39726       .     A
C169  H101   1.08229       .     A
C169  C168   1.39726       .     A
C169  C170   1.39799       .     A
C170  H102   1.08325       .     S
C170  C165   1.40585       .     A
C170  C169   1.39799       .     S
C171  C149   1.48214       .     A
C171  C172   1.40598       .     A
C171  C176   1.40547       .     S
C172  H103   1.08333       .     S
C172  C171   1.40598       .     S
C172  C173   1.39789       .     A
C173  H104   1.08233       .     A
C173  C172   1.39789       .     A
C173  C174   1.39736       .     S
C174  H105   1.08227       .     A
C174  C173   1.39736       .     A
C174  C175   1.39738       .     A
C175  H106   1.08215       .     S
C175  C174   1.39738       .     A
C175  C176   1.39801       .     S
C176  H107   1.08202       .     S
C176  C171   1.40547       .     S
C176  C175   1.39801       .     S
C177  C140   1.48811       .     D
C177  C178   1.40731       .     S
C177  C182   1.40687       .     S
C178  H108   1.08309       .     D
C178  C177   1.40731       .     A
C178  C179   1.39794       .     A
C179  H109   1.08239       .     A
C179  C178   1.39794       .     S
C179  C180   1.39711       .     S
C180  H110   1.08229       .     A
C180  C179   1.39711       .     S
C180  C181   1.39729       .     A
C181  H111   1.08228       .     A
C181  C180   1.39729       .     S
C181  C182   1.39836       .     A
C182  H112   1.08295       .     A
C182  C177   1.40687       .     S
C182  C181   1.39836       .     S
C183  C141   1.48834       .     A
C183  C184   1.40686       .     A
C183  C188   1.40730       .     S
C184  H113   1.08294       .     S
C184  C183   1.40686       .     A
C184  C185   1.39852       .     S
C185  H114   1.08224       .     A
C185  C184   1.39852       .     S
C185  C186   1.39732       .     S
C186  H115   1.08221       .     S
C186  C185   1.39732       .     S
C186  C187   1.39707       .     S
C187  H116   1.08221       .     S
C187  C186   1.39707       .     S
C187  C188   1.39793       .     S
C188  H117   1.08308       .     S
C188  C183   1.40730       .     S
C188  C187   1.39793       .     D
N189  C145   1.36839       .     S
N189  C147   1.36720       .     S
N189  C157   1.43540       .     D
N190  C146   1.36836       .     S
N190  C148   1.36711       .     S
N190  C158   1.43541       .     D
O191  Cu72   4.16259       .     S
O191  C138   1.29420       .     S
O192  Cu73   4.06016       .     S
O192  C139   1.29306       .     A
O193  Cu73   4.82703       .     A
O193  C138   1.29264       .     A
O194  Cu72   4.72573       .     A
O194  C139   1.29383       .     A
O195  C145   1.34951       .     A
O196  C153   1.38496       .     S
O196  C159   1.41322       .     S
O197  C154   1.38885   1_556     A
O197  C162   1.41791       .     A
H198  C220   1.08301       .     A
H199  C221   1.08285       .     A
H200  C222   1.08298       .     S
H201  C223   1.08298       .     A
H202  C210   1.07941       .     A
H203  C211   1.07976       .     A
H204  C212   1.08019       .     S
H205  C213   1.07975       .     A
H206  C226   1.08584       .     A
H207  C227   1.08580       .     A
H208  C228   1.08586       .     S
H209  C229   1.08573   1_455     S
C210  H202   1.07941       .     A
C210  C214   1.40808       .     S
C210  N230   1.35842       .     S
C211  H203   1.07976       .     A
C211  C215   1.40895       .     S
C211  N231   1.36217       .     S
C212  H204   1.08019       .     D
C212  C216   1.40857       .     S
C212  N230   1.35836       .     D
C213  H205   1.07975       .     S
C213  C217   1.40866       .     S
C213  N231   1.36225       .     D
C214  C210   1.40808       .     S
C214  C218   1.42504       .     S
C214  C226   1.48589       .     D
C215  C211   1.40895       .     S
C215  C219   1.42366   1_455     S
C215  C227   1.48605       .     S
C216  C212   1.40857       .     A
C216  C218   1.42531       .     A
C216  C228   1.48579       .     A
C217  C213   1.40866       .     A
C217  C219   1.42346   1_455     A
C217  C229   1.48636   1_455     A
C218  C214   1.42504       .     S
C218  C216   1.42531       .     S
C218  C225   1.50320       .     A
C219  C215   1.42366   1_655     A
C219  C217   1.42346   1_655     A
C219  C224   1.50375       .     A
C220  H198   1.08301       .     S
C220  C223   1.40483       .     A
C220  C225   1.40736       .     A
C221  H199   1.08285       .     A
C221  C222   1.40493       .     S
C221  C224   1.40732       .     A
C222  H200   1.08298       .     A
C222  C221   1.40493       .     A
C222  C225   1.40725       .     S
C223  H201   1.08298       .     S
C223  C220   1.40483       .     A
C223  C224   1.40746       .     S
C224  C219   1.50375       .     S
C224  C221   1.40732       .     A
C224  C223   1.40746       .     S
C225  C218   1.50320       .     S
C225  C220   1.40736       .     D
C225  C222   1.40725       .     S
C226  H206   1.08584       .     D
C226  C214   1.48589       .     S
C226  O232   1.22027       .     S
C227  H207   1.08580       .     S
C227  C215   1.48605       .     S
C227  O233   1.22045   1_455     S
C228  H208   1.08586       .     S
C228  C216   1.48579       .     S
C228  O234   1.22046       .     S
C229  H209   1.08573   1_655     S
C229  C217   1.48636   1_655     S
C229  O235   1.22051       .     S
N230  Cu73   2.21713       .     S
N230  C210   1.35842       .     S
N230  C212   1.35836       .     S
N231  Cu72   2.25137       .     S
N231  C211   1.36217       .     S
N231  C213   1.36225       .     S
O232  C226   1.22027       .     S
O233  C227   1.22045   1_655     S
O234  C228   1.22046       .     S
O235  C229   1.22051       .     S
