data_I
_chemical_name_common  'nh3_gradient_5.00/cif/sample_4'
_cell_length_a 18.10509
_cell_length_b 22.29476
_cell_length_c 32.58294
_cell_angle_alpha 85.90724
_cell_angle_beta  91.00374
_cell_angle_gamma 82.58782
_space_group_name_H-M_alt      'P 1'


loop_
_space_group_symop_operation_xyz
  'x, y, z' 

loop_
_atom_site_label
_atom_site_fract_x
_atom_site_fract_y
_atom_site_fract_z
_atom_site_type_symbol
Cu0   0.60157216 0.4169391 0.93482494    Cu
Cu1   0.7349664 0.35169473 0.92860943    Cu
Br2   0.5866377 0.6564955 0.9565166    Br
Br3   0.8834747 0.69386464 0.9060606    Br
C4    0.67887753 0.8534247 0.9312133     C
C5    0.68348753 0.76030266 0.8969712     C
C6    0.7337361 0.75786185 0.96553516     C
C7    0.6856674 0.62596333 0.9418033     C
C8    0.8105059 0.64165384 0.92080903     C
C9    0.705528 0.5635355 0.94178563     C
C10   0.8300147 0.5791792 0.92087257     C
C11   0.73819673 0.6651933 0.93128955     C
C12   0.6356121 0.14474821 0.90492934     C
C13   0.54351455 0.12899625 0.95724744     C
C14   0.61357725 0.20709372 0.9040155     C
C15   0.526176 0.19164062 0.9581082     C
C16   0.5600347 0.23060954 0.9310469     C
C17   0.7984053 0.47412112 0.9313704     C
C18   0.65509456 0.009848118 0.96524876     C
C19   0.60337216 0.012091756 0.897038     C
C20   0.59952414 0.10527158 0.9311034     C
C21   0.62291247 0.9493532 0.8962868     C
H22   0.48442248 0.20971394 0.9788978     H
C23   0.67513025 0.9469742 0.96605664     C
C24   0.6589589 0.91663694 0.9311866     C
C25   0.539464 0.2958908 0.9310193     C
C26   0.6071627 0.91867566 0.8616399     C
C27   0.7109795 0.91392404 0.00073337555     C
C28   0.7777149 0.5397824 0.9313426     C
C29   0.62709194 0.85615885 0.86160475     C
C30   0.7304686 0.85134655 0.0008214712     C
C31   0.6629614 0.823114 0.89625436     C
C32   0.7146659 0.8206713 0.9661991     C
C33   0.75867057 0.10691047 0.8998408     C
C34   0.80541134 0.15945768 0.89535826     C
C35   0.88248277 0.14165771 0.9156303     C
C36   0.45187995 0.067115664 0.9623982     C
C37   0.37645784 0.10565531 0.9668085     C
C38   0.31383145 0.07754946 0.94659626     C
H39   0.5794869 0.9428431 0.8344448     H
H40   0.7239941 0.9362459 0.02790904     H
H41   0.61423624 0.83385813 0.8343922     H
H42   0.75797385 0.8271565 0.02805376     H
H43   0.6645782 0.53371423 0.95006806     H
H44   0.8859155 0.5615713 0.9126067     H
H45   0.64015466 0.23717976 0.88319886     H
H46   0.78876513 0.067169905 0.8857699     H
H47   0.75350976 0.09268367 0.9330951     H
H48   0.81161314 0.17259836 0.8621724     H
H49   0.77688557 0.19924927 0.91006756     H
H50   0.87758607 0.13013744 0.94912577     H
H51   0.9154877 0.18009901 0.91150457     H
H52   0.9124975 0.102108836 0.9013332     H
H53   0.44892234 0.020667672 0.9765325     H
H54   0.46308908  0.06215 0.92915857     H
H55   0.3649409 0.109439015 0.9999833     H
H56   0.37785527 0.15194547 0.95202273     H
H57   0.32311642 0.07506859 0.91311395     H
H58   0.25981846 0.10580778 0.9506669     H
H59   0.31085223 0.031256437 0.9609799     H
N60   0.7179986 0.72929215 0.93126243     N
N61   0.6197838 0.040939093 0.9311308     N
O62   0.6712568 0.039878607 0.9981061     O
O63   0.5676714 0.04406953 0.8641612     O
O64   0.66919005 0.73032385 0.8637767     O
O65   0.76769483 0.72546345 0.99875253     O
O66   0.86758715 0.4521585 0.92999965     O
O67   0.7472169 0.43901756 0.9327584     O
O68   0.52649426 0.32770693 0.89658815     O
O69   0.5345774 0.32074165 0.96542645     O
O70   0.6894522 0.122546315 0.8783283     O
O71   0.50856847 0.09127951 0.98388684     O
H72   0.19846782 0.4654759 0.9768543     H
H73   0.13884981 0.3047634 0.8886456     H
H74   0.26534563 0.3341122 0.88937384     H
H75   0.07082658 0.43867084 0.9742296     H
H76   0.50093305 0.3600669 0.9570663     H
H77   0.88660866 0.29818484 0.99225396     H
H78   0.4177012 0.53923875 0.91605866     H
H79   0.8699825 0.3452947 0.86446756     H
H80   0.42328364 0.27900577 0.96694696     H
H81   0.99479556 0.30911025 0.034575224     H
H82   0.28579554 0.57441396 0.90288186     H
H83   0.97055763 0.3799937 0.82496977     H
C84   0.45353186 0.39292505 0.9475638     C
C85   0.91133064 0.31483278 0.9644847     C
C86   0.4067816 0.49350634 0.9243962     C
C87   0.90197253 0.3412595 0.89303803     C
C88   0.3813584 0.37578222 0.94821817     C
C89   0.9851019 0.3284814 0.9664192     C
C90   0.33354408 0.4788874 0.9216303     C
C91   0.97359496 0.3595532 0.8930757     C
C92   0.31945145 0.4190098 0.9343463     C
C93   0.017308712 0.35239872 0.9302632     C
C94   0.18583117 0.43069133 0.9572553     C
C95   0.15118015 0.3402179 0.90773964     C
C96   0.22341196 0.35687503 0.9082298     C
C97   0.11305032 0.41527477 0.9558503     C
C98   0.094943546 0.3695242 0.9313062     C
C99   0.2417969 0.40199763 0.9332319     C
C100  0.3744649 0.31303826 0.96493906     C
C101  0.025852267 0.31487918 0.0066753626     C
C102  0.27531096 0.52746075 0.9040685     C
C103  0.9981756 0.38739562 0.85367197     C
N104  0.4650303 0.45079613 0.93639946     N
N105  0.8713682 0.32038423 0.9282936     N
O106  0.31600705 0.2989979 0.97827196     O
O107  0.09379454 0.30730432 0.009265304     O
O108  0.21684924 0.51604897 0.8891792     O
O109  0.046610102 0.42077208 0.85264933     O
H110  0.7939058 0.3318061 0.14185336     H
H111  0.54475534 0.45170543 0.71975636     H
H112  0.7732883 0.36637884 0.731244     H
H113  0.5586176 0.39604977 0.13183974     H
H114  0.7764649 0.36149225 0.65635735     H
H115  0.55476105 0.3999349 0.20673065     H
H116  0.5775836 0.2716748 0.5424445     H
H117  0.68429005 0.5235566 0.3176481     H
H118  0.58318794 0.26317343 0.46925697     H
H119  0.6895621 0.5281264 0.3912656     H
H120  0.8708369 0.27254516 0.18992768     H
H121  0.7958061 0.23913309 0.21626596     H
H122  0.8751481 0.2563471 0.24450415     H
H123  0.58179945 0.52936417 0.61770535     H
H124  0.5223025 0.5375808 0.662246     H
H125  0.48273394 0.5323068 0.6120166     H
H126  0.47426322 0.17214021 0.31990507     H
H127  0.5375229 0.11269124 0.34758997     H
H128  0.45398057 0.14518394 0.37145892     H
H129  0.5627247 0.18524925 0.39955762     H
H130  0.50219685 0.24489157 0.37123418     H
H131  0.5791509 0.23048694 0.30989707     H
H132  0.646924 0.17652111 0.33807194     H
H133  0.65807796 0.6682068 0.53434086     H
H134  0.7501442 0.672869 0.5143669     H
H135  0.6684557 0.6996067 0.48250398     H
H136  0.72439516 0.6014682 0.4612994     H
H137  0.63534385 0.5940957 0.48336086     H
H138  0.69845724 0.559127 0.55048156     H
H139  0.7888716 0.5573984 0.5285483     H
H140  0.7823471 0.14202286 0.48465437     H
H141  0.81720877 0.11912335 0.43560368     H
H142  0.87193364 0.15999849 0.4679394     H
H143  0.8116262 0.22844912 0.41002485     H
H144  0.77742344 0.25075728 0.45901316     H
H145  0.6645425 0.19689295 0.44757473     H
H146  0.70164263 0.17283103 0.40116176     H
H147  0.92462707 0.4966229 0.39225638     H
H148  0.96398515 0.49206308 0.4440894     H
H149  0.9782533 0.42725018  0.41367     H
H150  0.8819666 0.41393712 0.4658615     H
H151  0.84397453 0.41774535 0.41411534     H
H152  0.79545546 0.5284847 0.41987905     H
H153  0.8372677 0.52448404 0.46924976     H
C154  0.6695851 0.37478942 0.3457277     C
C155  0.6706014 0.39282066 0.5172317     C
C156  0.6570297 0.32030478 0.32861382     C
C157  0.6973803 0.44234258 0.5348327     C
C158  0.6451009 0.26931557 0.3554479     C
C159  0.72509944 0.48773855 0.5085749     C
C160  0.6758956 0.42721516 0.3197556     C
C161  0.63755554 0.34987175 0.54222745     C
C162  0.676676 0.36287716 0.1313735     C
C163  0.6587042 0.4095181 0.7312194     C
C164  0.6516309 0.33534008 0.4573622     C
C165  0.6908925 0.43137214 0.40570864     C
C166  0.70284736 0.43173224 0.44880828     C
C167  0.66296524 0.3267754 0.4151061     C
C168  0.67481095 0.38681945 0.4744286     C
C169  0.67411333 0.377647 0.38886982     C
C170  0.61280894 0.29664186 0.48229828     C
C171  0.68967867 0.48418435 0.37931547     C
C172  0.60685647 0.30316746 0.52424175     C
C173  0.68344593 0.48200968 0.3369066     C
C174  0.679468 0.36069822 0.08631434     C
C175  0.65610147 0.4121324 0.7762333     C
C176  0.66273594 0.2699584 0.39792913     C
C177  0.7406604 0.47533914 0.46735835     C
C178  0.6624035 0.31818786 0.2853672     C
C179  0.69954675 0.44195673 0.578363     C
C180  0.67315656 0.42389998 0.277067     C
C181  0.63414085 0.3555854 0.5846373     C
C182  0.60684216 0.38440704 0.19265406     C
C183  0.7261287 0.3815711 0.67020327     C
C184  0.609354 0.38228974 0.15007263     C
C185  0.7239958 0.38432112 0.7127875     C
C186  0.74135965 0.34523764 0.15605599     C
C187  0.5958631 0.432436 0.7062451     C
C188  0.7387631 0.34583497 0.19916001     C
C189  0.5983635 0.430904 0.6633975     C
C190  0.6712501 0.36669776 0.217149     C
C191  0.66337895 0.40433234 0.6454766     C
C192  0.83674276 0.27223873 0.21792419     C
C193  0.5312919 0.5155543 0.6328267     C
C194   0.60598 0.2176148 0.34057742     C
C195  0.5416308 0.20293148 0.36831632     C
C196  0.499357 0.15525436 0.35058847     C
C197  0.7299104 0.5515132 0.52209884     C
C198  0.69359124 0.60172504 0.4903949     C
C199  0.6925955 0.66442674 0.5065607     C
C200  0.6979243 0.21094328 0.42143548     C
C201  0.77773565 0.21551192 0.43657488     C
C202  0.81440175 0.15530415 0.45746619     C
C203  0.8093635 0.49765292 0.4477293     C
C204  0.8671883 0.4444026 0.4375904     C
C205  0.9378371 0.46668708 0.4208729     C
N206  0.66793203 0.369801 0.26088834     N
N207  0.6656484 0.40060315 0.6017705     N
O208  0.7413713 0.33891436 0.070028014     O
O209  0.59421563 0.43396148 0.7925195     O
O210  0.61980605 0.3799913 0.06389647     O
O211  0.71578085 0.3928846 0.79865104     O
O212  0.6665713 0.26488853 0.26786953     O
O213  0.7382483 0.4801205 0.59750617     O
O214  0.60084784 0.31583768 0.6087826     O
O215  0.67752177 0.47396648 0.25183582     O
O216  0.80222535 0.33122277 0.22419506     O
O217  0.53586215 0.45195198 0.6390557     O
loop_
_geom_bond_atom_site_label_1
_geom_bond_atom_site_label_2
_geom_bond_distance
_geom_bond_site_symmetry_2
_ccdc_geom_bond_type
Cu0   Cu1    2.67254       .     S
Cu0   O68    2.88960       .     S
Cu0   O69    2.73377       .     D
Cu0   N104   2.49243       .     S
Cu0   O209   4.62333       .     S
Cu0   O210   4.22619   1_556     S
Cu1   Cu0    2.67254       .     A
Cu1   O66    3.49034       .     A
Cu1   O67    2.00140       .     A
Cu1   N105   2.47857       .     S
Cu1   O208   4.59479   1_556     A
Cu1   O211   4.26678       .     S
Br2   C7     1.91563       .     A
Br3   C8     1.91582       .     A
C4    C24    1.40885       .     S
C4    C31    1.40918       .     S
C4    C32    1.40917       .     D
C5    C31    1.40015       .     S
C5    N60    1.36770       .     S
C5    O64    1.34965       .     S
C6    C32    1.40015       .     S
C6    N60    1.36790       .     D
C6    O65    1.34969       .     A
C7    Br2    1.91563       .     A
C7    C9     1.39192       .     A
C7    C11    1.40359       .     S
C8    Br3    1.91582       .     S
C8    C10    1.39192       .     A
C8    C11    1.40354       .     A
C9    C7     1.39192       .     A
C9    C28    1.40252       .     A
C9    H43    1.08311       .     A
C10   C8     1.39192       .     S
C10   C28    1.40271       .     A
C10   H44    1.08310       .     S
C11   C7     1.40359       .     A
C11   C8     1.40354       .     S
C11   N60    1.42861       .     D
C12   C14    1.39380       .     S
C12   C20    1.41053       .     A
C12   O70    1.38304       .     S
C13   C15    1.39381       .     S
C13   C20    1.41065       .     S
C13   O71    1.38316       .     S
C14   C12    1.39380       .     S
C14   C16    1.39822       .     S
C14   H45    1.08226       .     S
C15   C13    1.39381       .     S
C15   C16    1.39824       .     S
C15   H22    1.08212       .     D
C16   C14    1.39822       .     S
C16   C15    1.39824       .     S
C16   C25    1.45497       .     S
C17   C28    1.46344       .     S
C17   O66    1.28742       .     S
C17   O67    1.28725       .     S
C18   C23    1.40015   1_545     A
C18   N61    1.36958       .     A
C18   O62    1.34979       .     S
C19   C21    1.39991   1_545     S
C19   N61    1.36953       .     S
C19   O63    1.34960       .     S
C20   C12    1.41053       .     A
C20   C13    1.41065       .     A
C20   N61    1.43379       .     S
C21   C19    1.39991   1_565     S
C21   C24    1.40848       .     S
C21   C26    1.40455       .     S
H22   C15    1.08212       .     S
C23   C18    1.40014   1_565     A
C23   C24    1.40826       .     S
C23   C27    1.40460   1_556     A
C24   C4     1.40885       .     S
C24   C21    1.40848       .     S
C24   C23    1.40826       .     S
C25   C16    1.45497       .     D
C25   O68    1.28495       .     S
C25   O69    1.28496       .     D
C26   C21    1.40455       .     S
C26   C29    1.39404       .     S
C26   H39    1.08314       .     S
C27   C23    1.40460   1_554     A
C27   C30    1.39403       .     A
C27   H40    1.08309       .     A
C28   C9     1.40252       .     S
C28   C10    1.40271       .     A
C28   C17    1.46344       .     S
C29   C26    1.39404       .     A
C29   C31    1.40402       .     A
C29   H41    1.08310       .     S
C30   C27    1.39403       .     S
C30   C32    1.40409   1_554     D
C30   H42    1.08309       .     S
C31   C4     1.40918       .     S
C31   C5     1.40015       .     S
C31   C29    1.40402       .     S
C32   C4     1.40917       .     D
C32   C6     1.40015       .     A
C32   C30    1.40410   1_556     A
C33   C34    1.53155       .     A
C33   H46    1.11097       .     S
C33   H47    1.11602       .     S
C33   O70    1.41598       .     A
C34   C33    1.53155       .     A
C34   C35    1.52587       .     A
C34   H48    1.11137       .     A
C34   H49    1.11113       .     A
C35   C34    1.52587       .     S
C35   H50    1.11094       .     A
C35   H51    1.10823       .     S
C35   H52    1.11069       .     A
C36   C37    1.53146       .     S
C36   H53    1.11104       .     D
C36   H54    1.11599       .     S
C36   O71    1.41604       .     A
C37   C36    1.53146       .     S
C37   C38    1.52580       .     S
C37   H55    1.11148       .     S
C37   H56    1.11086       .     S
C38   C37    1.52580       .     S
C38   H57    1.11091       .     S
C38   H58    1.10830       .     S
C38   H59    1.11084       .     S
H39   C26    1.08314       .     S
H40   C27    1.08309       .     D
H41   C29    1.08310       .     S
H42   C30    1.08309       .     S
H43   C9     1.08311       .     S
H44   C10    1.08310       .     S
H45   C14    1.08226       .     S
H46   C33    1.11097       .     S
H47   C33    1.11602       .     A
H48   C34    1.11137       .     A
H49   C34    1.11113       .     S
H50   C35    1.11094       .     S
H51   C35    1.10823       .     S
H52   C35    1.11069       .     S
H53   C36    1.11104       .     A
H54   C36    1.11599       .     A
H55   C37    1.11148       .     S
H56   C37    1.11086       .     S
H57   C38    1.11091       .     S
H58   C38    1.10830       .     S
H59   C38    1.11084       .     S
N60   C5     1.36770       .     A
N60   C6     1.36790       .     S
N60   C11    1.42861       .     A
N61   C18    1.36958       .     S
N61   C19    1.36953       .     S
N61   C20    1.43379       .     S
O62   C18    1.34979       .     D
O63   C19    1.34960       .     S
O64   C5     1.34965       .     S
O65   C6     1.34969       .     D
O66   Cu1    3.49034       .     S
O66   C17    1.28742       .     S
O67   Cu1    2.00140       .     D
O67   C17    1.28725       .     S
O68   Cu0    2.88960       .     S
O68   C25    1.28495       .     S
O69   Cu0    2.73377       .     A
O69   C25    1.28496       .     A
O70   C12    1.38304       .     A
O70   C33    1.41598       .     A
O71   C13    1.38316       .     A
O71   C36    1.41604       .     A
H72   C94    1.08301       .     S
H73   C95    1.08285       .     S
H74   C96    1.08298       .     A
H75   C97    1.08298       .     A
H76   C84    1.07941       .     A
H77   C85    1.07976       .     A
H78   C86    1.08019       .     S
H79   C87    1.07975       .     A
H80   C100   1.08584       .     A
H81   C101   1.08581   1_655     S
H82   C102   1.08586       .     A
H83   C103   1.08572       .     A
C84   H76    1.07941       .     A
C84   C88    1.40808       .     A
C84   N104   1.35842       .     S
C85   H77    1.07976       .     S
C85   C89    1.40895       .     A
C85   N105   1.36217       .     S
C86   H78    1.08019       .     S
C86   C90    1.40857       .     A
C86   N104   1.35836       .     S
C87   H79    1.07975       .     S
C87   C91    1.40866       .     D
C87   N105   1.36225       .     S
C88   C84    1.40808       .     D
C88   C92    1.42504       .     S
C88   C100   1.48589       .     S
C89   C85    1.40895       .     D
C89   C93    1.42366   1_655     S
C89   C101   1.48605   1_656     S
C90   C86    1.40857       .     D
C90   C92    1.42531       .     S
C90   C102   1.48579       .     S
C91   C87    1.40866       .     S
C91   C93    1.42346   1_655     A
C91   C103   1.48637       .     A
C92   C88    1.42504       .     A
C92   C90    1.42531       .     A
C92   C99    1.50320       .     A
C93   C89    1.42366   1_455     A
C93   C91    1.42346   1_455     S
C93   C98    1.50375       .     S
C94   H72    1.08301       .     A
C94   C97    1.40484       .     A
C94   C99    1.40736       .     A
C95   H73    1.08285       .     A
C95   C96    1.40493       .     S
C95   C98    1.40732       .     A
C96   H74    1.08298       .     A
C96   C95    1.40493       .     S
C96   C99    1.40725       .     A
C97   H75    1.08298       .     A
C97   C94    1.40484       .     A
C97   C98    1.40746       .     A
C98   C93    1.50375       .     S
C98   C95    1.40732       .     S
C98   C97    1.40746       .     A
C99   C92    1.50320       .     S
C99   C94    1.40736       .     S
C99   C96    1.40725       .     A
C100  H80    1.08584       .     S
C100  C88    1.48589       .     S
C100  O106   1.22027       .     D
C101  H81    1.08581   1_455     S
C101  C89    1.48605   1_454     D
C101  O107   1.22046       .     S
C102  H82    1.08586       .     D
C102  C90    1.48579       .     S
C102  O108   1.22046       .     S
C103  H83    1.08572       .     A
C103  C91    1.48637       .     A
C103  O109   1.22051   1_655     S
N104  Cu0    2.49243       .     S
N104  C84    1.35842       .     A
N104  C86    1.35836       .     A
N105  Cu1    2.47857       .     S
N105  C85    1.36217       .     S
N105  C87    1.36225       .     A
O106  C100   1.22027       .     A
O107  C101   1.22046       .     S
O108  C102   1.22046       .     S
O109  C103   1.22051   1_455     S
H110  C186   1.08194       .     S
H111  C187   1.08318       .     S
H112  C185   1.08299       .     D
H113  C184   1.08305       .     D
H114  C183   1.08279       .     S
H115  C182   1.08302       .     S
H116  C172   1.08315       .     S
H117  C173   1.08305       .     S
H118  C170   1.07957       .     S
H119  C171   1.07950       .     S
H120  C192   1.11046       .     S
H121  C192   1.11465       .     A
H122  C192   1.10933       .     A
H123  C193   1.11379       .     A
H124  C193   1.11289       .     A
H125  C193   1.10923       .     S
H126  C196   1.11080       .     S
H127  C196   1.11082       .     S
H128  C196   1.11047       .     S
H129  C195   1.10802       .     S
H130  C195   1.11205       .     S
H131  C194   1.10620       .     A
H132  C194   1.11046       .     A
H133  C199   1.11090       .     A
H134  C199   1.11080       .     S
H135  C199   1.11013       .     S
H136  C198   1.10828       .     S
H137  C198   1.11219       .     S
H138  C197   1.10646       .     A
H139  C197   1.11047       .     A
H140  C202   1.11093       .     A
H141  C202   1.11059       .     S
H142  C202   1.11047       .     A
H143  C201   1.11207       .     S
H144  C201   1.11041       .     S
H145  C200   1.10344       .     S
H146  C200   1.10897       .     S
H147  C205   1.11095       .     A
H148  C205   1.11089       .     A
H149  C205   1.11043       .     S
H150  C204   1.11204       .     S
H151  C204   1.11040       .     S
H152  C203   1.10348       .     S
H153  C203   1.10914       .     S
C154  C156   1.41480       .     S
C154  C160   1.41138       .     S
C154  C169   1.41310       .     S
C155  C157   1.41482       .     S
C155  C161   1.41128       .     S
C155  C168   1.41297       .     S
C156  C154   1.41480       .     S
C156  C158   1.42530       .     A
C156  C178   1.41788       .     A
C157  C155   1.41482       .     A
C157  C159   1.42501       .     A
C157  C179   1.41758       .     S
C158  C156   1.42530       .     S
C158  C176   1.41654       .     S
C158  C194   1.53081       .     A
C159  C157   1.42501       .     A
C159  C177   1.41615       .     A
C159  C197   1.53083       .     S
C160  C154   1.41138       .     S
C160  C173   1.40044       .     S
C160  C180   1.39849       .     S
C161  C155   1.41128       .     S
C161  C172   1.40057       .     S
C161  C181   1.39843       .     A
C162  C174   1.47396       .     A
C162  C184   1.40418       .     A
C162  C186   1.40569       .     S
C163  C175   1.47333       .     A
C163  C185   1.40546       .     S
C163  C187   1.40567       .     S
C164  C167   1.41829       .     S
C164  C168   1.41768       .     S
C164  C170   1.40533       .     S
C165  C166   1.41789       .     S
C165  C169   1.41770       .     S
C165  C171   1.40517       .     D
C166  C165   1.41789       .     S
C166  C168   1.40849       .     D
C166  C177   1.42137       .     S
C167  C164   1.41829       .     S
C167  C169   1.40875       .     S
C167  C176   1.42138       .     S
C168  C155   1.41297       .     A
C168  C164   1.41768       .     A
C168  C166   1.40849       .     S
C169  C154   1.41310       .     S
C169  C165   1.41770       .     S
C169  C167   1.40875       .     A
C170  H118   1.07957       .     A
C170  C164   1.40533       .     S
C170  C172   1.38924       .     A
C171  H119   1.07950       .     S
C171  C165   1.40517       .     A
C171  C173   1.38924       .     S
C172  H116   1.08315       .     D
C172  C161   1.40057       .     S
C172  C170   1.38924       .     D
C173  H117   1.08305       .     S
C173  C160   1.40044       .     S
C173  C171   1.38924       .     A
C174  C162   1.47396       .     A
C174  O208   1.30029       .     S
C174  O210   1.30115       .     S
C175  C163   1.47333       .     A
C175  O209   1.30033       .     A
C175  O211   1.30121       .     S
C176  C158   1.41654       .     S
C176  C167   1.42138       .     A
C176  C200   1.53180       .     A
C177  C159   1.41615       .     S
C177  C166   1.42137       .     S
C177  C203   1.53163       .     S
C178  C156   1.41788       .     S
C178  N206   1.36814       .     S
C178  O212   1.34828       .     D
C179  C157   1.41758       .     D
C179  N207   1.36763       .     S
C179  O213   1.34842       .     S
C180  C160   1.39849       .     S
C180  N206   1.36382       .     S
C180  O215   1.34985       .     S
C181  C161   1.39843       .     S
C181  N207   1.36416       .     S
C181  O214   1.34999       .     A
C182  H115   1.08302       .     A
C182  C184   1.39293       .     A
C182  C190   1.39868       .     A
C183  H114   1.08279       .     S
C183  C185   1.39423       .     S
C183  C191   1.39933       .     S
C184  H113   1.08305       .     S
C184  C162   1.40418       .     S
C184  C182   1.39293       .     S
C185  H112   1.08299       .     A
C185  C163   1.40546       .     A
C185  C183   1.39423       .     A
C186  H110   1.08194       .     S
C186  C162   1.40569       .     S
C186  C188   1.40702       .     S
C187  H111   1.08318       .     S
C187  C163   1.40567       .     A
C187  C189   1.40034       .     A
C188  C186   1.40702       .     A
C188  C190   1.40403       .     S
C188  O216   1.38721       .     A
C189  C187   1.40034       .     S
C189  C191   1.40393       .     S
C189  O217   1.38137       .     S
C190  C182   1.39868       .     S
C190  C188   1.40403       .     A
C190  N206   1.43369       .     A
C191  C183   1.39933       .     S
C191  C189   1.40393       .     S
C191  N207   1.43340       .     S
C192  H120   1.11046       .     S
C192  H121   1.11465       .     S
C192  H122   1.10933       .     S
C192  O216   1.41153       .     S
C193  H123   1.11379       .     S
C193  H124   1.11289       .     S
C193  H125   1.10923       .     S
C193  O217   1.40955       .     S
C194  H131   1.10620       .     S
C194  H132   1.11046       .     A
C194  C158   1.53081       .     A
C194  C195   1.54092       .     A
C195  H129   1.10802       .     A
C195  H130   1.11205       .     S
C195  C194   1.54092       .     S
C195  C196   1.52688       .     S
C196  H126   1.11080       .     A
C196  H127   1.11082       .     A
C196  H128   1.11047       .     A
C196  C195   1.52688       .     S
C197  H138   1.10646       .     S
C197  H139   1.11047       .     S
C197  C159   1.53083       .     S
C197  C198   1.54074       .     S
C198  H136   1.10828       .     S
C198  H137   1.11219       .     A
C198  C197   1.54074       .     A
C198  C199   1.52672       .     A
C199  H133   1.11090       .     S
C199  H134   1.11080       .     A
C199  H135   1.11013       .     S
C199  C198   1.52672       .     S
C200  H145   1.10344       .     S
C200  H146   1.10897       .     S
C200  C176   1.53180       .     S
C200  C201   1.53684       .     S
C201  H143   1.11207       .     S
C201  H144   1.11041       .     D
C201  C200   1.53684       .     S
C201  C202   1.52633       .     D
C202  H140   1.11093       .     S
C202  H141   1.11059       .     S
C202  H142   1.11047       .     S
C202  C201   1.52633       .     S
C203  H152   1.10348       .     A
C203  H153   1.10914       .     A
C203  C177   1.53163       .     S
C203  C204   1.53690       .     S
C204  H150   1.11204       .     S
C204  H151   1.11040       .     A
C204  C203   1.53690       .     A
C204  C205   1.52624       .     S
C205  H147   1.11095       .     A
C205  H148   1.11089       .     S
C205  H149   1.11043       .     A
C205  C204   1.52624       .     S
N206  C178   1.36814       .     D
N206  C180   1.36382       .     S
N206  C190   1.43369       .     S
N207  C179   1.36763       .     S
N207  C181   1.36416       .     S
N207  C191   1.43340       .     S
O208  Cu1    4.59479   1_554     S
O208  C174   1.30029       .     S
O209  Cu0    4.62333       .     S
O209  C175   1.30033       .     S
O210  Cu0    4.22619   1_554     S
O210  C174   1.30115       .     S
O211  Cu1    4.26678       .     S
O211  C175   1.30121       .     S
O212  C178   1.34828       .     S
O213  C179   1.34842       .     S
O214  C181   1.34999       .     S
O215  C180   1.34985       .     S
O216  C188   1.38721       .     S
O216  C192   1.41153       .     S
O217  C189   1.38137       .     S
O217  C193   1.40955       .     S
