data_I
_chemical_name_common  'nh3_hybrid_1.00/cif/sample_1'
_cell_length_a 15.74749
_cell_length_b 16.35002
_cell_length_c 22.27740
_cell_angle_alpha 92.80856
_cell_angle_beta  91.59071
_cell_angle_gamma 83.14626
_space_group_name_H-M_alt      'P 1'


loop_
_space_group_symop_operation_xyz
  'x, y, z' 

loop_
_atom_site_label
_atom_site_fract_x
_atom_site_fract_y
_atom_site_fract_z
_atom_site_type_symbol
H0    0.5070422 0.7616977 0.9451615     H
H1    0.58435404 0.8920743 0.9233453     H
H2    0.45268854 0.6385189 0.107595734     H
H3    0.27535835 0.0934248 0.12426858     H
H4    0.62581146 0.42362776 0.84579664     H
H5    0.6780084 0.6664736 0.8652137     H
H6    0.30514556 0.7981471 0.07833068     H
H7    0.4633424 0.48639563 0.09721281     H
H8    0.5722882 0.044259906 0.9338611     H
H9    0.52612734 0.76869535 0.08321394     H
C10   0.4469672 0.010380745 0.047328368     C
C11   0.58137256 0.5194923 0.97962356     C
C12   0.44790202 0.92401797 0.04093313     C
C13   0.5820797 0.6055942 0.9861435     C
C14   0.5003288 0.8804443 0.99694085     C
C15   0.53256965 0.6496316 0.03155684     C
C16   0.54492396 0.9243439 0.95815676     C
C17   0.48983833 0.6060528 0.07170741     C
C18   0.5391433 0.01032567 0.96444935     C
C19   0.49471924 0.5200875 0.06548141     C
C20   0.5097958 0.7892295 0.99040437     C
C21   0.52384216 0.74091506 0.038005576     C
C22   0.39409342 0.056092262 0.09435773     C
C23   0.62923545 0.4737622 0.93017083     C
C24   0.6385343 0.64771074 0.94827384     C
C25   0.3906635 0.8806101 0.07732308     C
N26   0.49132302 0.051572204 0.008589914     N
N27   0.5393369 0.47858983 0.019887164     N
O28   0.42792052 0.08178449 0.14034438     O
O29   0.30491665 0.06294489 0.088448785     O
O30   0.7073783 0.4624996 0.9332244     O
O31   0.58587503 0.4520963 0.87732375     O
O32   0.6861591 0.69433767 0.97190523     O
O33   0.63692516 0.63428116 0.8857988     O
O34   0.38779283 0.89356744 0.13181545     O
O35   0.34062076 0.82432544 0.048971284     O
Zn36  0.4902116 0.358406 0.015841698    Zn
Zn37  0.539663 0.17371759 0.013140739    Zn
H38   0.72167027 0.28998116 0.57515085     H
H39   0.6111694 0.090184696 0.32751128     H
H40   0.4979814 0.079942636 0.32400993     H
H41   0.5671604 0.03147075 0.26636463     H
H42   0.52654463 0.4499105 0.70381314     H
H43   0.4133478 0.43966836 0.70031154     H
H44   0.45736596 0.49838135 0.7614478     H
H45   0.302847 0.2398719 0.45267195     H
H46   0.7261579 0.27794394 0.46604672     H
H47   0.29835722 0.2519169 0.5617756     H
H48   0.5534908 0.100867204 0.17627785     H
H49   0.47102648 0.42898586 0.851545     H
H50   0.49622586 0.36525545 0.17413868     H
H51   0.5282825 0.1645976 0.8536839     H
C52   0.5164863 0.22082134 0.829464     C
C53   0.50593317 0.3141368 0.26092488     C
C54   0.51858413 0.21571632 0.7668979     C
C55   0.52099967 0.24216092 0.29340342     C
C56   0.5035176 0.2876922 0.73441935     C
C57   0.5271634 0.22747731 0.101135656     C
C58   0.49735388 0.30237573 0.9266872     C
C59   0.4322994 0.27199492 0.6377293     C
C60   0.59221786 0.2578581 0.39009348     C
C61   0.58187175 0.28544903 0.6424559     C
C62   0.538285 0.1646907 0.26278558     C
C63   0.4426455 0.24440406 0.38536692     C
C64   0.58601975 0.27880454 0.57957757     C
C65   0.43849748 0.25104848 0.4482453     C
C66   0.5109506 0.26844487 0.5455711     C
C67   0.5135666 0.2614082 0.4822517     C
C68   0.4332721 0.2650709 0.57474875     C
C69   0.591243 0.26478985 0.45307368     C
C70   0.6631123 0.28207397 0.55002636     C
C71   0.3614071 0.24777131 0.47779685     C
C72   0.66569245 0.27513933 0.48741272     C
C73   0.48623216 0.36516234 0.7650373     C
C74   0.3588247 0.25471374 0.54041004     C
C75   0.5546083 0.087036066 0.29699424     C
C76   0.46991783 0.44281697 0.73082876     C
C77   0.5402025 0.1603912 0.19984652     C
C78   0.48431465 0.36946183 0.8279762     C
C79   0.5251156 0.23231485 0.16730614     C
C80   0.49940154 0.2975382 0.86051667     C
C81   0.508031 0.3090317 0.19835867     C
Br82  0.4822548 0.4204592 0.30110475    Br
Br83  0.5422628 0.109392926 0.7267076    Br
N84   0.5058738 0.28191072 0.6700235     N
N85   0.5186435 0.24794236 0.35779926     N
O86   0.6658748 0.26112092 0.36123726     O
O87   0.6530443 0.29521224 0.67587566     O
O88   0.3714733 0.23463985 0.35193655     O
O89   0.5138226 0.29403198 0.07195034     O
O90   0.5106946 0.23582104 0.9558725     O
O91   0.5422633 0.15678453 0.07282911     O
O92   0.4822539 0.37306845 0.9549936     O
O93   0.35864258 0.26873216 0.6665855     O
H94   0.05888682 0.35774013 0.9404474     H
H95   0.86680794 0.26736352 0.83086437     H
H96   0.16203165 0.2622659 0.19732073     H
H97   0.96996295 0.17189537 0.08773264     H
H98   0.96114373 0.4078693 0.045111857     H
H99   0.067706056 0.12176616 0.98306817     H
C100  0.35852912 0.2343108 0.00541846     C
C101  0.67032063 0.29532468 0.022761587     C
C102  0.9819644 0.2463076 0.9602753     C
C103  0.04688564 0.28332797 0.067910604     C
C104  0.03830879 0.31628704 0.97383684     C
C105  0.99053085 0.21334933 0.05434347     C
C106  0.2677522 0.24129543 0.007426518     C
C107  0.7610979 0.28834012 0.020759404     C
C108  0.043163955 0.18609206 0.9972423     C
C109  0.98568547 0.3435364 0.030936709     C
C110  0.09844378 0.25649837 0.011590447     C
C111  0.9304059 0.27313712 0.01658961     C
C112  0.19127555 0.24785088 0.0091692675     C
C113  0.8375846 0.2817838 0.019016372     C
C114  0.94373393 0.22695611 0.89971364     C
C115  0.085106045 0.30268034 0.12847254     C
O116  0.88898295 0.28758493 0.8714081     O
O117  0.06841735 0.37115437 0.15274331     O
O118  0.13986644 0.24204352 0.15677088     O
O119  0.40089157 0.16208977 0.99750555     O
O120  0.6279585 0.3675458 0.0306804     O
O121  0.39564732 0.30060902 0.011003722     O
O122  0.6332027 0.22902654 0.017182183     O
O123  0.9604226 0.15848204 0.87544286     O
loop_
_geom_bond_atom_site_label_1
_geom_bond_atom_site_label_2
_geom_bond_distance
_geom_bond_site_symmetry_2
_ccdc_geom_bond_type
H0    C20    1.08542       .     S
H1    C16    1.08341       .     S
H2    C17    1.08327       .     S
H3    O29    1.01393       .     S
H4    O31    1.01394       .     D
H5    O33    1.01355       .     S
H6    O35    1.01383       .     S
H7    C19    1.08157       .     S
H8    C18    1.08191       .     D
H9    C21    1.08580       .     S
C10   C12    1.41060   1_545     A
C10   C22    1.47400       .     A
C10   N26    1.37438       .     A
C11   C13    1.40948       .     A
C11   C23    1.47367       .     A
C11   N27    1.37382   1_556     A
C12   C10    1.41060   1_565     A
C12   C14    1.40916   1_554     S
C12   C25    1.49097       .     S
C13   C11    1.40948       .     A
C13   C15    1.41005   1_556     D
C13   C24    1.49028       .     S
C14   C12    1.40916   1_556     S
C14   C16    1.40343       .     A
C14   C20    1.48137       .     A
C15   C13    1.41005   1_554     A
C15   C17    1.40386       .     S
C15   C21    1.48262       .     S
C16   H1     1.08341       .     A
C16   C14    1.40343       .     S
C16   C18    1.39824   1_565     S
C17   H2     1.08327       .     S
C17   C15    1.40386       .     S
C17   C19    1.39871       .     D
C18   H8     1.08191       .     S
C18   C16    1.39824   1_545     D
C18   N26    1.35785   1_556     S
C19   H7     1.08157       .     S
C19   C17    1.39871       .     S
C19   N27    1.35794       .     S
C20   H0     1.08542       .     S
C20   C14    1.48137       .     D
C20   C21    1.35086   1_556     S
C21   H9     1.08580       .     S
C21   C15    1.48262       .     S
C21   C20    1.35086   1_554     D
C22   C10    1.47400       .     S
C22   O28    1.22093       .     A
C22   O29    1.39843       .     A
C23   C11    1.47367       .     A
C23   O30    1.22282       .     A
C23   O31    1.39642       .     A
C24   C13    1.49028       .     A
C24   O32    1.22311       .     A
C24   O33    1.39833       .     S
C25   C12    1.49097       .     S
C25   O34    1.22317       .     A
C25   O35    1.39832       .     D
N26   C10    1.37438       .     S
N26   C18    1.35785   1_554     S
N26   Zn37   2.21738       .     A
N27   C11    1.37382   1_554     A
N27   C19    1.35794       .     A
N27   Zn36   2.19304       .     S
O28   C22    1.22093       .     S
O29   H3     1.01393       .     A
O29   C22    1.39843       .     S
O30   C23    1.22282       .     S
O31   H4     1.01394       .     S
O31   C23    1.39642       .     S
O32   C24    1.22311       .     D
O33   H5     1.01355       .     S
O33   C24    1.39833       .     D
O34   C25    1.22317       .     S
O35   H6     1.01383       .     S
O35   C25    1.39832       .     S
Zn36  N27    2.19304       .     D
Zn36  Zn37   3.02522       .     S
Zn36  O89    1.67873       .     S
Zn36  O92    1.38777   1_554     A
Zn36  O120   2.20672       .     A
Zn36  O121   1.85449       .     S
Zn37  N26    2.21738       .     S
Zn37  Zn36   3.02522       .     A
Zn37  O90    1.68844   1_554     A
Zn37  O91    1.36996       .     A
Zn37  O119   2.23236   1_554     S
Zn37  O122   1.81610       .     A
H38   C70    1.08307       .     S
H39   C75    1.10999       .     S
H40   C75    1.11003       .     S
H41   C75    1.11082       .     S
H42   C76    1.11003       .     S
H43   C76    1.11010       .     D
H44   C76    1.11067       .     D
H45   C71    1.08308       .     S
H46   C72    1.08306       .     S
H47   C74    1.08307       .     S
H48   C77    1.08353       .     S
H49   C78    1.08353       .     A
H50   C81    1.08304       .     A
H51   C52    1.08303       .     A
C52   H51    1.08303       .     A
C52   C54    1.39329       .     S
C52   C80    1.40321       .     S
C53   C55    1.40426       .     A
C53   C81    1.39329       .     A
C53   Br82   1.91664       .     A
C54   C52    1.39329       .     S
C54   C56    1.40426       .     A
C54   Br83   1.91676       .     A
C55   C53    1.40426       .     A
C55   C62    1.40963       .     S
C55   N85    1.43427       .     A
C56   C54    1.40426       .     S
C56   C73    1.40963       .     S
C56   N84    1.43427       .     S
C57   C79    1.47339       .     D
C57   O89    1.28770       .     S
C57   O91    1.28897       .     D
C58   C80    1.47339       .     S
C58   O90    1.28770       .     S
C58   O92    1.28897       .     S
C59   C68    1.40242       .     S
C59   N84    1.36871       .     S
C59   O93    1.34945       .     S
C60   C69    1.40242       .     A
C60   N85    1.36871       .     A
C60   O86    1.34945       .     A
C61   C64    1.40239       .     A
C61   N84    1.36879       .     S
C61   O87    1.34932       .     A
C62   C55    1.40963       .     S
C62   C75    1.50496       .     A
C62   C77    1.40142       .     S
C63   C65    1.40239       .     D
C63   N85    1.36880       .     S
C63   O88    1.34944       .     D
C64   C61    1.40239       .     S
C64   C66    1.40911       .     S
C64   C70    1.40477       .     A
C65   C63    1.40239       .     A
C65   C67    1.40911       .     S
C65   C71    1.40477       .     S
C66   C64    1.40911       .     A
C66   C67    1.41099       .     A
C66   C68    1.40912       .     A
C67   C65    1.40911       .     S
C67   C66    1.41099       .     A
C67   C69    1.40912       .     S
C68   C59    1.40242       .     S
C68   C66    1.40912       .     S
C68   C74    1.40470       .     S
C69   C60    1.40242       .     S
C69   C67    1.40912       .     D
C69   C72    1.40471       .     D
C70   H38    1.08307       .     S
C70   C64    1.40477       .     S
C70   C72    1.39525       .     S
C71   H45    1.08308       .     S
C71   C65    1.40477       .     A
C71   C74    1.39524       .     A
C72   H46    1.08306       .     A
C72   C69    1.40471       .     A
C72   C70    1.39525       .     S
C73   C56    1.40963       .     S
C73   C76    1.50495       .     A
C73   C78    1.40142       .     A
C74   H47    1.08307       .     A
C74   C68    1.40470       .     S
C74   C71    1.39524       .     A
C75   H39    1.10999       .     A
C75   H40    1.11003       .     A
C75   H41    1.11082       .     S
C75   C62    1.50496       .     A
C76   H42    1.11003       .     S
C76   H43    1.11010       .     S
C76   H44    1.11067       .     S
C76   C73    1.50495       .     D
C77   H48    1.08353       .     S
C77   C62    1.40142       .     D
C77   C79    1.40432       .     S
C78   H49    1.08353       .     S
C78   C73    1.40142       .     S
C78   C80    1.40432       .     S
C79   C57    1.47339       .     S
C79   C77    1.40432       .     S
C79   C81    1.40321       .     A
C80   C52    1.40321       .     A
C80   C58    1.47339       .     A
C80   C78    1.40432       .     A
C81   H50    1.08304       .     S
C81   C53    1.39329       .     A
C81   C79    1.40321       .     S
Br82  C53    1.91664       .     A
Br83  C54    1.91676       .     S
N84   C56    1.43427       .     D
N84   C59    1.36871       .     S
N84   C61    1.36879       .     D
N85   C55    1.43427       .     S
N85   C60    1.36871       .     S
N85   C63    1.36880       .     T
O86   C60    1.34945       .     S
O87   C61    1.34932       .     S
O88   C63    1.34944       .     S
O89   Zn36   1.67873       .     S
O89   C57    1.28770       .     S
O90   Zn37   1.68844   1_556     S
O90   C58    1.28770       .     D
O91   Zn37   1.36996       .     S
O91   C57    1.28897       .     S
O92   Zn36   1.38777   1_556     S
O92   C58    1.28897       .     S
O93   C59    1.34945       .     S
H94   C104   1.11034       .     S
H95   O116   1.01381       .     S
H96   O118   1.01388       .     S
H97   C105   1.11029       .     S
H98   C109   1.11025       .     S
H99   C108   1.11015       .     S
C100  C106   1.42219       .     S
C100  O119   1.29172   1_554     S
C100  O121   1.29078       .     S
C101  C107   1.42219       .     S
C101  O120   1.29174       .     D
C101  O122   1.29077       .     S
C102  C104   1.54311   1_655     S
C102  C108   1.54442   1_655     S
C102  C111   1.53072   1_556     T
C102  C114   1.49710       .     S
C103  C105   1.54323   1_455     D
C103  C109   1.54444   1_455     S
C103  C110   1.53083       .     D
C103  C115   1.49705       .     S
C104  H94    1.11034       .     S
C104  C102   1.54311   1_455     T
C104  C109   1.55504   1_456     S
C104  C110   1.54115   1_556     S
C105  H97    1.11029       .     S
C105  C103   1.54323   1_655     S
C105  C108   1.55517   1_654     S
C105  C111   1.54106       .     S
C106  C100   1.42219       .     D
C106  C112   1.19781       .     S
C107  C101   1.42219       .     S
C107  C113   1.19797       .     S
C108  H99    1.11015       .     S
C108  C102   1.54442   1_455     S
C108  C105   1.55517   1_456     S
C108  C110   1.54038   1_556     S
C109  H98    1.11025       .     S
C109  C103   1.54444   1_655     S
C109  C104   1.55504   1_654     S
C109  C111   1.54028       .     S
C110  C103   1.53083       .     S
C110  C104   1.54115   1_554     S
C110  C108   1.54038   1_554     S
C110  C112   1.45405       .     S
C111  C102   1.53072   1_554     D
C111  C105   1.54106       .     S
C111  C109   1.54028       .     S
C111  C113   1.45389       .     S
C112  C106   1.19781       .     T
C112  C110   1.45405       .     S
C113  C107   1.19797       .     D
C113  C111   1.45389       .     S
C114  C102   1.49710       .     S
C114  O116   1.39668       .     S
C114  O123   1.22195       .     S
C115  C103   1.49705       .     S
C115  O117   1.22195       .     S
C115  O118   1.39677       .     S
O116  H95    1.01381       .     S
O116  C114   1.39668       .     S
O117  C115   1.22195       .     S
O118  H96    1.01388       .     S
O118  C115   1.39677       .     S
O119  Zn37   2.23236   1_556     S
O119  C100   1.29172   1_556     S
O120  Zn36   2.20672       .     S
O120  C101   1.29174       .     S
O121  Zn36   1.85449       .     S
O121  C100   1.29078       .     S
O122  Zn37   1.81610       .     S
O122  C101   1.29077       .     S
O123  C114   1.22195       .     S
