data_I
_chemical_name_common  'nh3_hybrid_1.00/cif/sample_0'
_cell_length_a 15.76630
_cell_length_b 16.33716
_cell_length_c 22.07200
_cell_angle_alpha 93.02299
_cell_angle_beta  91.88420
_cell_angle_gamma 83.17608
_space_group_name_H-M_alt      'P 1'


loop_
_space_group_symop_operation_xyz
  'x, y, z' 

loop_
_atom_site_label
_atom_site_fract_x
_atom_site_fract_y
_atom_site_fract_z
_atom_site_type_symbol
Cu0   0.2576362 0.4568232 0.44810152    Cu
Cu1   0.12617548 0.38877326 0.39485016    Cu
H2    0.5628445 0.5667568 0.4853406     H
H3    0.81387466 0.2813377 0.35484245     H
H4    0.9693124 0.27174723 0.3489304     H
H5    0.4074176 0.5763469 0.49124753     H
H6    0.84555197 0.48523518 0.5446411     H
H7    0.53117263 0.36290067 0.29553086     H
H8    0.42785877 0.31522936 0.33746827     H
H9    0.9488564 0.53289175 0.5026829     H
C10   0.30222198 0.48045412 0.43090048     C
C11   0.074495435 0.36765224 0.40927383     C
C12   0.39443332 0.47726816 0.42378166     C
C13   0.9822842 0.37083822 0.41639265     C
C14   0.43713522 0.41984674 0.3817803     C
C15   0.93959194 0.4282683 0.45839465     C
C16   0.52638406 0.41844508 0.37563807     C
C17   0.8503337 0.42966044 0.46454105     C
C18   0.57162297 0.46845222 0.41567203     C
C19   0.80510575 0.37965196 0.4245068     C
C20   0.5281221 0.52657735 0.45573923     C
C21   0.8485969 0.3215182 0.38443902     C
C22   0.43990523 0.53171843 0.45923784     C
C23   0.9368138 0.31637704 0.3809404     C
C24   0.6651225 0.46075183 0.41626826     C
C25   0.71159667 0.38734272 0.42391476     C
O26   0.25773704 0.55201465 0.442425     O
O27   0.11898053 0.2960917 0.3977493     O
O28   0.2679992 0.41157335 0.42420205     O
O29   0.108718276 0.43653306 0.41597232     O
O30   0.806086 0.47692084 0.5096327     O
O31   0.5706429 0.37118238 0.33055094     O
O32   0.39044335 0.36695972 0.34739643     O
O33   0.9862742 0.48114666 0.4927779     O
F34   0.672936 0.31792226 0.4292494     F
F35   0.70378166 0.53018326 0.4109297     F
H36   0.9553719 0.27942944 0.32894742     H
H37   0.42910656 0.56978166 0.5121858     H
H38   0.18576938 0.34525895 0.46517637     H
H39   0.19870888 0.50395244 0.37595692     H
H40   0.0130831795 0.08287096 0.37144595     H
H41   0.37139532 0.76634026 0.4696873     H
H42   0.25416943 0.13995576 0.44708237     H
H43   0.13030899 0.70925546 0.39405096     H
C44   0.03120884 0.2115506 0.3798638     C
C45   0.35326964 0.63766056 0.4612695     C
C46   0.16302866 0.24338269 0.424285     C
C47   0.22144972 0.60582864 0.41684827     C
C48   0.05671962 0.12670505 0.38651112     C
C49   0.3277587 0.7225062 0.45462212     C
C50   0.19096808 0.15842247 0.42814568     C
C51   0.19351037 0.6907886 0.41298765     C
C52   0.13774988 0.09837663 0.41002393     C
C53   0.24672854 0.7508346 0.43110928     C
C54   0.21818307 0.84183115 0.42556995     C
C55   0.16629535 0.0073800087 0.41556332     C
N56   0.13911374 0.8689216 0.40270945     N
N57   0.11386078 0.9494962 0.39784127     N
N58   0.27061924 0.89971715 0.4433026     N
N59   0.08348105 0.27086973 0.3992937     N
N60   0.30099723 0.5783414 0.4418396     N
N61   0.24537288 0.9803025 0.43842185     N
O62   0.95208144 0.23141599 0.3532638     O
O63   0.432397 0.6177952 0.48786953     O
O64   0.21923263 0.296476 0.44642538     O
O65   0.16525893 0.55273914 0.3947172     O
H66   0.0308516 0.5905094 0.9678696     H
H67   0.33757004 0.25284633 0.8680375     H
H68   0.080966674 0.6159746 0.8684376     H
H69   0.28970757 0.2287635 0.96836984     H
H70   0.4066354 0.49684763 0.75489485     H
H71   0.15541379 0.46613377 0.16129482     H
H72   0.22290711 0.47630286 0.56945807     H
H73   0.9637322 0.2528146 0.19079792     H
H74   0.13860458 0.4247948 0.70639974     H
H75   0.013638049 0.28601006 0.04015577     H
C76   0.37642694 0.51889867 0.54534316     C
C77   0.005676724 0.32969695 0.29517078     C
C78   0.1746909 0.32992655 0.033595085     C
C79   0.19658767 0.51517254 0.8034466     C
C80   0.08170671 0.45685124 0.032785773     C
C81   0.28574637 0.38590223 0.802734     C
C82   0.10945552 0.47283214 0.9756363     C
C83   0.25906223 0.37059185 0.8603005     C
C84   0.17048495 0.41477495 0.9469997     C
C85   0.19879127 0.4291066 0.88924646     C
C86   0.20334816 0.34247756 0.9760026     C
C87   0.16686584 0.5019712 0.86060333     C
C88   0.07771692 0.5450282 0.9466225     C
C89   0.29111668 0.29857287 0.88944036     C
C90   0.1064248 0.55963385 0.8896599     C
C91   0.2637172 0.28477907 0.9469297     C
C92   0.36708894 0.49305853 0.7139791     C
C93   0.113956444 0.4194008 0.16852915     C
C94   0.4004046 0.5059319 0.6581106     C
C95   0.086402714 0.4091711 0.22664618     C
C96   0.3475967 0.5013001 0.60520875     C
C97   0.03289119 0.34731418 0.23507917     C
C98   0.26408133 0.48055404 0.6095183     C
C99   0.00517838 0.3000521 0.1849159     C
C100  0.23214011 0.4645441 0.6649984     C
C101  0.02993653 0.31260994 0.12669826     C
C102  0.28421113 0.47205326 0.7177276     C
C103  0.08598885 0.3722075 0.118858814     C
N104  0.11456351 0.38646096 0.060223937     N
N105  0.2543179 0.457144 0.7758419     N
N106  0.48835787 0.5199921 0.656028     N
N107  0.10988478 0.4644235 0.2754482     N
O108  0.33265892 0.49943686 0.49774668     O
O109  0.04957945 0.34888512 0.34262323     O
O110  0.9383925 0.29358515 0.29969037     O
O111  0.44384593 0.55473685 0.5406796     O
O112  0.20627858 0.26196498 0.062880635     O
O113  0.16832702 0.5851509 0.7754968     O
O114  0.02225337 0.5108073 0.060779333     O
O115  0.34245133 0.33023694 0.7736209     O
O116  0.5410332 0.46992055 0.6233973     O
O117  0.5190792 0.57138926 0.69557726     O
O118  0.051053803 0.50484955 0.3090427     O
O119  0.18682875 0.48590553 0.27917385     O
O120  0.15062259 0.44159374 0.6654503     O
O121  0.9979077 0.2658372 0.07925582     O
loop_
_geom_bond_atom_site_label_1
_geom_bond_atom_site_label_2
_geom_bond_distance
_geom_bond_site_symmetry_2
_ccdc_geom_bond_type
Cu0   Cu1    2.67636       .     S
Cu0   O26    1.56696       .     S
Cu0   O28    0.88729       .     D
Cu0   N60    2.18756       .     S
Cu0   O108   1.76479       .     S
Cu0   O111   3.96612       .     A
Cu1   Cu0    2.67636       .     A
Cu1   O27    1.53660       .     S
Cu1   O29    0.90606       .     S
Cu1   N59    2.12259       .     S
Cu1   O109   1.79670       .     A
Cu1   O110   3.99199   1_455     A
H2    C20    1.08356       .     S
H3    C21    1.08351       .     A
H4    C23    1.08353       .     A
H5    C22    1.08344       .     S
H6    O30    0.99000       .     S
H7    O31    0.99014       .     S
H8    O32    0.99032       .     S
H9    O33    0.99043       .     D
C10   C12    1.46192       .     S
C10   O26    1.30725       .     S
C10   O28    1.30416       .     S
C11   C13    1.46192   1_455     S
C11   O27    1.30725       .     A
C11   O29    1.30416       .     A
C12   C10    1.46192       .     S
C12   C14    1.41137       .     A
C12   C22    1.39963       .     A
C13   C11    1.46192   1_655     S
C13   C15    1.41140       .     A
C13   C23    1.39970       .     S
C14   C12    1.41137       .     S
C14   C16    1.41544       .     A
C14   O32    1.38191       .     S
C15   C13    1.41140       .     D
C15   C17    1.41561       .     S
C15   O33    1.38172       .     D
C16   C14    1.41544       .     S
C16   C18    1.40637       .     S
C16   O31    1.38205       .     A
C17   C15    1.41561       .     A
C17   C19    1.40629       .     S
C17   O30    1.38202       .     S
C18   C16    1.40637       .     S
C18   C20    1.39670       .     A
C18   C24    1.46421       .     A
C19   C17    1.40629       .     S
C19   C21    1.39672       .     A
C19   C25    1.46437       .     A
C20   H2     1.08356       .     S
C20   C18    1.39670       .     S
C20   C22    1.38784       .     S
C21   H3     1.08351       .     S
C21   C19    1.39672       .     D
C21   C23    1.38784       .     S
C22   H5     1.08344       .     S
C22   C12    1.39963       .     S
C22   C20    1.38784       .     S
C23   H4     1.08353       .     A
C23   C13    1.39970       .     A
C23   C21    1.38784       .     S
C24   C18    1.46421       .     A
C24   C25    1.34465       .     A
C24   F35    1.36205       .     S
C25   C19    1.46437       .     A
C25   C24    1.34465       .     S
C25   F34    1.36189       .     S
O26   Cu0    1.56696       .     A
O26   C10    1.30725       .     S
O27   Cu1    1.53660       .     D
O27   C11    1.30725       .     S
O28   Cu0    0.88729       .     S
O28   C10    1.30416       .     S
O29   Cu1    0.90606       .     S
O29   C11    1.30416       .     S
O30   H6     0.99000       .     S
O30   C17    1.38202       .     S
O31   H7     0.99014       .     S
O31   C16    1.38205       .     D
O32   H8     0.99032       .     S
O32   C14    1.38191       .     D
O33   H9     0.99043       .     D
O33   C15    1.38172       .     S
F34   C25    1.36189       .     A
F35   C24    1.36205       .     A
H36   O62    0.98079       .     A
H37   O63    0.98079       .     D
H38   O64    0.98207       .     S
H39   O65    0.98210       .     D
H40   C48    1.08335       .     S
H41   C49    1.08335       .     S
H42   C50    1.08310       .     A
H43   C51    1.08310       .     A
C44   C48    1.41059       .     D
C44   N59    1.38745       .     A
C44   O62    1.37190   1_455     S
C45   C49    1.41059       .     S
C45   N60    1.38745       .     S
C45   O63    1.37190       .     S
C46   C50    1.41159       .     S
C46   N59    1.38769       .     S
C46   O64    1.37327       .     S
C47   C51    1.41158       .     S
C47   N60    1.38768       .     S
C47   O65    1.37302       .     S
C48   H40    1.08335       .     S
C48   C44    1.41059       .     S
C48   C52    1.39889       .     S
C49   H41    1.08335       .     S
C49   C45    1.41059       .     S
C49   C53    1.39888       .     D
C50   H42    1.08310       .     S
C50   C46    1.41159       .     D
C50   C52    1.39945       .     D
C51   H43    1.08310       .     S
C51   C47    1.41158       .     A
C51   C53    1.39945       .     A
C52   C48    1.39889       .     A
C52   C50    1.39945       .     D
C52   C55    1.51133       .     S
C53   C49    1.39888       .     D
C53   C51    1.39945       .     S
C53   C54    1.51133       .     S
C54   C53    1.51133       .     A
C54   N56    1.36222       .     A
C54   N58    1.36252       .     D
C55   C52    1.51133       .     A
C55   N57    1.36243   1_545     S
C55   N61    1.36227   1_545     S
N56   C54    1.36222       .     S
N56   N57    1.33807       .     S
N57   C55    1.36243   1_565     S
N57   N56    1.33807       .     S
N58   C54    1.36252       .     S
N58   N61    1.33825       .     S
N59   Cu1    2.12259       .     S
N59   C44    1.38745       .     S
N59   C46    1.38769       .     A
N60   Cu0    2.18756       .     A
N60   C45    1.38745       .     A
N60   C47    1.38768       .     D
N61   C55    1.36227   1_565     D
N61   N58    1.33825       .     D
O62   H36    0.98079       .     S
O62   C44    1.37191   1_655     A
O63   H37    0.98079       .     S
O63   C45    1.37190       .     A
O64   H38    0.98207       .     S
O64   C46    1.37327       .     S
O65   H39    0.98210       .     S
O65   C47    1.37302       .     S
H66   C88    1.08331       .     S
H67   C89    1.08312       .     S
H68   C90    1.08308       .     D
H69   C91    1.08312       .     S
H70   C92    1.08370       .     A
H71   C93    1.08349       .     A
H72   C98    1.08377       .     A
H73   C99    1.08416   1_655     A
H74   O120   0.98890       .     A
H75   O121   0.98915   1_455     A
C76   C96    1.46488       .     S
C76   O108   1.28459       .     A
C76   O111   1.28246       .     D
C77   C97    1.46053       .     S
C77   O109   1.28204       .     D
C77   O110   1.28267   1_455     S
C78   C86    1.39620   1_554     S
C78   N104   1.36693       .     A
C78   O112   1.34972       .     S
C79   C87    1.39615       .     A
C79   N105   1.36709       .     A
C79   O113   1.34959       .     A
C80   C82    1.39602   1_554     S
C80   N104   1.36705       .     S
C80   O114   1.34971       .     S
C81   C83    1.39559       .     A
C81   N105   1.36710       .     A
C81   O115   1.34988       .     A
C82   C80    1.39602   1_556     S
C82   C84    1.40885       .     S
C82   C88    1.40357       .     S
C83   C81    1.39559       .     A
C83   C85    1.40878       .     S
C83   C89    1.40377       .     S
C84   C82    1.40885       .     D
C84   C85    1.40451       .     D
C84   C86    1.40920       .     S
C85   C83    1.40878       .     D
C85   C84    1.40451       .     S
C85   C87    1.40931       .     D
C86   C78    1.39620   1_556     A
C86   C84    1.40920       .     A
C86   C91    1.40335       .     A
C87   C79    1.39615       .     S
C87   C85    1.40931       .     S
C87   C90    1.40356       .     S
C88   H66    1.08331       .     S
C88   C82    1.40357       .     A
C88   C90    1.39186       .     A
C89   H67    1.08312       .     A
C89   C83    1.40377       .     D
C89   C91    1.39171       .     D
C90   H68    1.08308       .     D
C90   C87    1.40356       .     S
C90   C88    1.39186       .     A
C91   H69    1.08312       .     S
C91   C86    1.40335       .     A
C91   C89    1.39171       .     S
C92   H70    1.08370       .     S
C92   C94    1.39174       .     S
C92   C102   1.39595       .     S
C93   H71    1.08349       .     S
C93   C95    1.39235       .     S
C93   C103   1.39666       .     D
C94   C92    1.39174       .     S
C94   C96    1.41565       .     A
C94   N106   1.43485       .     A
C95   C93    1.39235       .     A
C95   C97    1.41438       .     A
C95   N107   1.43624       .     A
C96   C76    1.46488       .     A
C96   C94    1.41565       .     S
C96   C98    1.40548       .     A
C97   C77    1.46053       .     D
C97   C95    1.41438       .     S
C97   C99    1.40399       .     D
C98   H72    1.08377       .     S
C98   C96    1.40548       .     S
C98   C100   1.38823       .     A
C99   H73    1.08416   1_455     S
C99   C97    1.40399       .     A
C99   C101   1.38761       .     A
C100  C98    1.38823       .     A
C100  C102   1.41053       .     S
C100  O120   1.38139       .     S
C101  C99    1.38761       .     S
C101  C103   1.41111       .     A
C101  O121   1.38129   1_455     A
C102  C92    1.39595       .     A
C102  C100   1.41053       .     S
C102  N105   1.42364       .     S
C103  C93    1.39666       .     S
C103  C101   1.41111       .     A
C103  N104   1.42379       .     S
N104  C78    1.36693       .     S
N104  C80    1.36705       .     D
N104  C103   1.42379       .     D
N105  C79    1.36709       .     S
N105  C81    1.36710       .     D
N105  C102   1.42364       .     S
N106  C94    1.43485       .     D
N106  O116   1.30129       .     A
N106  O117   1.30124       .     A
N107  C95    1.43624       .     A
N107  O118   1.30167       .     S
N107  O119   1.30122       .     S
O108  Cu0    1.76479       .     S
O108  C76    1.28459       .     S
O109  Cu1    1.79670       .     S
O109  C77    1.28204       .     S
O110  Cu1    3.99199   1_655     S
O110  C77    1.28267   1_655     S
O111  Cu0    3.96612       .     S
O111  C76    1.28246       .     S
O112  C78    1.34972       .     S
O113  C79    1.34959       .     S
O114  C80    1.34971       .     S
O115  C81    1.34988       .     S
O116  N106   1.30129       .     S
O117  N106   1.30124       .     S
O118  N107   1.30167       .     S
O119  N107   1.30122       .     S
O120  H74    0.98890       .     S
O120  C100   1.38139       .     S
O121  H75    0.98915   1_655     S
O121  C101   1.38129   1_655     S
