data_I
_chemical_name_common  'nh3_hybrid_1.00/cif/sample_2'
_cell_length_a 15.73998
_cell_length_b 16.31947
_cell_length_c 22.04135
_cell_angle_alpha 92.88006
_cell_angle_beta  91.74695
_cell_angle_gamma 83.41985
_space_group_name_H-M_alt      'P 1'


loop_
_space_group_symop_operation_xyz
  'x, y, z' 

loop_
_atom_site_label
_atom_site_fract_x
_atom_site_fract_y
_atom_site_fract_z
_atom_site_type_symbol
H0    0.07951462 0.6479902 0.19173262     H
H1    0.81803477 0.35681397 0.30133024     H
H2    0.8736169 0.30787015 0.20260543     H
H3    0.66086787 0.71385056 0.5139035     H
H4    0.89034206 0.59563875 0.596657     H
H5    0.2414025 0.29393837 0.98126066     H
H6    0.008671761 0.4032749 0.89654434     H
H7    0.9531861 0.45039615 0.9966536     H
H8    0.02384913 0.6969724 0.29042542     H
H9    0.681915 0.6738501 0.30629802     H
H10   0.94502497 0.5502901 0.4960588     H
H11   0.21485782 0.33093336 0.1886211     H
C12   0.74126065 0.69186354 0.6234876     C
C13   0.6947992 0.66726935 0.39744288     C
C14   0.204018 0.33868498 0.09748539     C
O15   0.6185065 0.6889648 0.4041039     O
C16   0.9773725 0.38523287 0.13385968     C
C17   0.05043912 0.50522006 0.13014647     C
C18   0.018362522 0.5351431 0.18709284     C
C19   0.96497047 0.48814106 0.2177464     C
C20   0.9440033 0.41262427 0.19095922     C
C21   0.038692355 0.6105187 0.21422867     C
C22   0.0067254305 0.6386499 0.27101126     C
C23   0.953535 0.59219116 0.3020974     C
C24   0.9325301 0.5166891 0.27530882     C
C25   0.8792269 0.46964285 0.30599755     C
C26   0.8588321 0.39431083 0.27882022     C
C27   0.89074725 0.36620858 0.22202861     C
C28   0.9204064 0.61945397 0.35928237     C
C29   0.84743917 0.49941072 0.3630615     C
C30   0.7516731 0.649087 0.4515513     C
C31   0.7227114 0.6775984 0.5097579     C
C32   0.7722332 0.6595316 0.56270474     C
C33   0.8516112 0.61171466 0.55683845     C
C34   0.88257277 0.5853782 0.49946243     C
C35   0.8336364 0.603345 0.44652632     C
C36   0.1481216 0.35649276 0.042802837     C
C37   0.17864454 0.32858157 0.9849037     C
C38   0.12941313 0.3448468 0.93158025     C
C39   0.04827714 0.38994297 0.93668455     C
C40   0.016432047 0.41673607 0.99376816     C
C41   0.06530678 0.40075886 0.047076453     C
C42   0.16221118 0.31314883 0.87116957     C
N43   0.03025484 0.43109724 0.10492156     N
N44   0.8677683 0.5734332 0.38832778     N
O45   0.6840779 0.7555662 0.625075     O
O46   0.7721071 0.65498704 0.6717281     O
O47   0.9578383 0.3129957 0.10777859     O
O48   0.10168731 0.5496082 0.100369215     O
O49   0.94003487 0.69164115 0.38540167     O
O50   0.79637146 0.45493147 0.39291054     O
O51   0.13213897 0.35047358 0.8230103     O
O52   0.2201587 0.24994764 0.86971825     O
O53   0.72743475 0.6600426 0.3388837     O
O54   0.28060257 0.31784204 0.09165028     O
O55   0.1699723 0.34477255 0.15560943     O
H56   0.98259145 0.12865382 0.8698328     H
H57   0.9225259 0.8765977 0.6258129     H
H58   0.97774863 0.87400126 0.81831455     H
H59   0.926337 0.13129792 0.67743605     H
H60   0.80132496 0.28752065 0.67035973     H
H61   0.8605691 0.21967368 0.6146085     H
H62   0.8893631 0.33611926 0.55670685     H
H63   0.77580935 0.34053582 0.5686967     H
H64   0.8391751 0.40869305 0.6127655     H
H65   0.0404377 0.78605026 0.8825247     H
H66   0.10177982 0.71958077 0.8270071     H
H67   0.06468415 0.5969496 0.8831043     H
H68   0.12569404 0.6657158 0.92860335     H
H69   0.011926651 0.6680926 0.9389654     H
H70   0.91326576 0.7265437 0.62468946     H
H71   0.9915525 0.27875897 0.8709211     H
H72   0.96973604 0.0013517856 0.6794999     H
H73   0.9349859 0.0039455523 0.816243     H
C74   0.9433757 0.24805287 0.72281724     C
C75   0.9605401 0.7572651 0.772943     C
C76   0.94031554 0.16233976 0.7202544     C
C77   0.96389186 0.84295255 0.7754841     C
C78   0.9543284 0.118071765 0.77313906     C
C79   0.9502752 0.8872094 0.7225741     C
C80   0.9722202 0.16081658 0.82796496     C
C81   0.93259525 0.84445095 0.6676983     C
C82   0.9775129 0.2457122 0.828707     C
C83   0.92711115 0.75959307 0.6669453     C
C84   0.94787997 0.02809185 0.7729774     C
C85   0.9568393 0.97717494 0.7227488     C
C86   0.8561797 0.28111336 0.6390674     C
C87   0.8390452 0.34573108 0.5914028     C
C88   0.046248198 0.72486484 0.857644     C
C89   0.063215494 0.6597698 0.90497065     C
N90   0.9638526 0.28714925 0.7766822     N
N91   0.94027394 0.71819335 0.719016     N
O92   0.9336723 0.2928156 0.67070395     O
O93   0.96965444 0.7124826 0.82506615     O
Zn94  0.9018106 0.58008415 0.7720833    Zn
Zn95  0.0055981874 0.42346108 0.7244865    Zn
H96   0.44169757 0.41982034 0.65095675     H
H97   0.46340233 0.583496 0.8437901     H
H98   0.47095275 0.59071416 0.6627815     H
H99   0.43414718 0.4126022 0.8319654     H
C100  0.14287789 0.39006758 0.7264727     C
C101  0.762222 0.6132487 0.7682742     C
C102  0.46285933 0.54994375 0.7005222     C
C103  0.44224063 0.45337257 0.7942247     C
C104  0.44641876 0.45736247 0.6940953     C
C105  0.4586812 0.54595387 0.8006516     C
C106  0.22450273 0.41941783 0.73198056     C
C107  0.68060094 0.5838909 0.76276666     C
C108  0.39317638 0.56500673 0.7485744     C
C109  0.51192355 0.43830955 0.7461725     C
C110  0.37653357 0.47449103 0.74225587     C
C111  0.52856636 0.52882534 0.75249094     C
C112  0.29322633 0.44425568 0.73662347     C
C113  0.6118735 0.5590607 0.7581234     C
N114  0.57674116 0.36698234 0.74472916     N
N115  0.32835886 0.63633394 0.7500177     N
O116  0.076384775 0.43616033 0.72146827     O
O117  0.8287152 0.56715596 0.7732786     O
O118  0.13358907 0.31672215 0.7263768     O
O119  0.7715109 0.6865941 0.76837015     O
O120  0.5535581 0.29296616 0.7390979     O
O121  0.65762377 0.37652457 0.7490242     O
O122  0.3515418 0.71035016 0.755649     O
O123  0.2474762 0.6267917 0.7457227     O
loop_
_geom_bond_atom_site_label_1
_geom_bond_atom_site_label_2
_geom_bond_distance
_geom_bond_site_symmetry_2
_ccdc_geom_bond_type
H0    C21    1.08288       .     D
H1    C26    1.08304       .     S
H2    C27    1.08315       .     S
H3    C31    1.08347       .     S
H4    C33    1.07917       .     A
H5    C37    1.08357       .     A
H6    C39    1.08321       .     A
H7    C40    1.08250   1_655     D
H8    C22    1.08282       .     S
H9    O53    1.01384       .     A
H10   C34    1.08212       .     S
H11   O55    1.01399       .     A
C12   C32    1.49023       .     S
C12   O45    1.29456       .     D
C12   O46    1.30167       .     A
C13   O15    1.22353       .     S
C13   C30    1.49042       .     S
C13   O53    1.39821       .     S
C14   C36    1.49103       .     S
C14   O54    1.22328       .     S
C14   O55    1.39829       .     S
O15   C13    1.22353       .     S
C16   C20    1.41053       .     A
C16   N43    1.37223   1_655     A
C16   O47    1.34868       .     A
C17   C18    1.41045       .     S
C17   N43    1.37223       .     D
C17   O48    1.34913       .     S
C18   C17    1.41045       .     A
C18   C19    1.40910   1_455     A
C18   C21    1.40636       .     A
C19   C18    1.40910   1_655     A
C19   C20    1.40873       .     A
C19   C24    1.41883       .     S
C20   C16    1.41053       .     A
C20   C19    1.40873       .     D
C20   C27    1.40643       .     S
C21   H0     1.08288       .     A
C21   C18    1.40636       .     S
C21   C22    1.39931       .     A
C22   H8     1.08282       .     S
C22   C21    1.39931       .     S
C22   C23    1.40638   1_455     S
C23   C22    1.40638   1_655     S
C23   C24    1.40872       .     D
C23   C28    1.41035       .     S
C24   C19    1.41883       .     S
C24   C23    1.40872       .     S
C24   C25    1.40902       .     A
C25   C24    1.40902       .     A
C25   C26    1.40640       .     A
C25   C29    1.41052       .     S
C26   H1     1.08304       .     D
C26   C25    1.40640       .     A
C26   C27    1.39908       .     S
C27   H2     1.08315       .     A
C27   C20    1.40643       .     A
C27   C26    1.39908       .     S
C28   C23    1.41035       .     S
C28   N44    1.37245       .     D
C28   O49    1.34875       .     S
C29   C25    1.41052       .     D
C29   N44    1.37183       .     S
C29   O50    1.34900       .     S
C30   C13    1.49042       .     S
C30   C31    1.41327       .     A
C30   C35    1.41900       .     A
C31   H3     1.08347       .     A
C31   C30    1.41327       .     D
C31   C32    1.40815       .     S
C32   C12    1.49023       .     A
C32   C31    1.40815       .     S
C32   C33    1.40105       .     A
C33   H4     1.07917       .     S
C33   C32    1.40105       .     D
C33   C34    1.39875       .     A
C34   H10    1.08212       .     S
C34   C33    1.39875       .     S
C34   C35    1.40302       .     S
C35   C30    1.41900       .     S
C35   C34    1.40302       .     S
C35   N44    1.44617       .     S
C36   C14    1.49103       .     S
C36   C37    1.41270   1_554     A
C36   C41    1.41940       .     A
C37   H5     1.08357       .     A
C37   C36    1.41270   1_556     S
C37   C38    1.40747       .     D
C38   C37    1.40747       .     S
C38   C39    1.40365       .     A
C38   C42    1.48949       .     A
C39   H6     1.08321       .     A
C39   C38    1.40365       .     A
C39   C40    1.39944       .     A
C40   H7     1.08250   1_455     S
C40   C39    1.39944       .     A
C40   C41    1.40360   1_556     D
C41   C36    1.41940       .     S
C41   C40    1.40360   1_554     A
C41   N43    1.44636       .     S
C42   C38    1.48949       .     A
C42   O51    1.30004       .     S
C42   O52    1.29599       .     S
N43   C16    1.37223   1_455     S
N43   C17    1.37223       .     S
N43   C41    1.44636       .     D
N44   C28    1.37245       .     S
N44   C29    1.37183       .     S
N44   C35    1.44617       .     S
O45   C12    1.29456       .     A
O45   Zn94   5.33401       .     A
O46   C12    1.30167       .     A
O46   Zn95   5.11210   1_655     S
O47   C16    1.34868       .     D
O48   C17    1.34913       .     A
O49   C28    1.34875       .     S
O50   C29    1.34900       .     A
O51   C42    1.30004       .     A
O51   Zn94   5.05028   1_455     S
O52   C42    1.29599       .     S
O52   Zn95   5.26599       .     D
O53   H9     1.01384       .     S
O53   C13    1.39821       .     S
O54   C14    1.22328       .     S
O55   H11    1.01399       .     S
O55   C14    1.39829       .     S
H56   C80    1.08333       .     S
H57   C81    1.08322       .     S
H58   C77    1.07714       .     S
H59   C76    1.07731       .     S
H60   C86    1.11378       .     S
H61   C86    1.11032       .     S
H62   C87    1.11046       .     S
H63   C87    1.11043       .     A
H64   C87    1.10873       .     A
H65   C88    1.11051       .     A
H66   C88    1.11368       .     S
H67   C89    1.10880       .     A
H68   C89    1.11059       .     A
H69   C89    1.11046       .     A
H70   C83    1.08163       .     S
H71   C82    1.08157       .     D
H72   C85    1.08330   1_545     A
H73   C84    1.08341       .     A
C74   C76    1.40338       .     A
C74   N90    1.36683       .     S
C74   O92    1.38723       .     A
C75   C77    1.40365       .     S
C75   N91    1.36693       .     A
C75   O93    1.38740       .     S
C76   H59    1.07731       .     S
C76   C74    1.40338       .     S
C76   C78    1.40061       .     A
C77   H58    1.07714       .     S
C77   C75    1.40365       .     S
C77   C79    1.40055       .     S
C78   C76    1.40061       .     S
C78   C80    1.40207       .     S
C78   C84    1.48331       .     S
C79   C77    1.40055       .     S
C79   C81    1.40232       .     S
C79   C85    1.48339       .     S
C80   H56    1.08333       .     S
C80   C78    1.40207       .     S
C80   C82    1.39670       .     S
C81   H57    1.08322       .     S
C81   C79    1.40232       .     S
C81   C83    1.39660       .     S
C82   H71    1.08157       .     S
C82   C80    1.39670       .     S
C82   N90    1.35941       .     S
C83   H70    1.08163       .     S
C83   C81    1.39660       .     A
C83   N91    1.35940       .     A
C84   H73    1.08341       .     A
C84   C78    1.48331       .     S
C84   C85    1.35139   1_545     A
C85   H72    1.08330   1_565     A
C85   C79    1.48339       .     A
C85   C84    1.35139   1_565     S
C86   H60    1.11378       .     D
C86   H61    1.11032       .     A
C86   C87    1.52229       .     A
C86   O92    1.41372       .     A
C87   H62    1.11046       .     S
C87   H63    1.11043       .     A
C87   H64    1.10873       .     S
C87   C86    1.52229       .     A
C88   H65    1.11051       .     S
C88   H66    1.11368       .     S
C88   C89    1.52228       .     S
C88   O93    1.41363   1_455     A
C89   H67    1.10880       .     S
C89   H68    1.11059       .     S
C89   H69    1.11046       .     S
C89   C88    1.52228       .     S
N90   C74    1.36683       .     S
N90   C82    1.35941       .     S
N90   Zn95   2.70964   1_655     S
N91   C75    1.36693       .     S
N91   C83    1.35940       .     S
N91   Zn94   2.72680       .     S
O92   C74    1.38723       .     D
O92   C86    1.41372       .     S
O93   C75    1.38740       .     S
O93   C88    1.41363   1_655     T
Zn94  O45    5.33401       .     S
Zn94  O51    5.05028   1_655     D
Zn94  N91    2.72680       .     S
Zn94  Zn95   3.02994   1_655     S
Zn94  O117   1.19455       .     S
Zn94  O119   2.53402       .     S
Zn95  O46    5.11210   1_455     D
Zn95  O52    5.26599       .     S
Zn95  N90    2.70964   1_455     S
Zn95  Zn94   3.02994   1_455     S
Zn95  O116   1.16086       .     S
Zn95  O118   2.50847       .     S
H96   C104   1.11020       .     S
H97   C105   1.11020       .     S
H98   C102   1.11014       .     S
H99   C103   1.11014       .     D
C100  C106   1.42144       .     S
C100  O116   1.22239       .     S
C100  O118   1.22226       .     S
C101  C107   1.42143       .     S
C101  O117   1.22239       .     S
C101  O119   1.22226       .     S
C102  H98    1.11014       .     D
C102  C104   1.56065       .     S
C102  C108   1.53885       .     T
C102  C111   1.54474       .     S
C103  H99    1.11014       .     D
C103  C105   1.56065       .     S
C103  C109   1.53885       .     D
C103  C110   1.54475       .     S
C104  H96    1.11020       .     S
C104  C102   1.56065       .     T
C104  C109   1.53868       .     S
C104  C110   1.54462       .     D
C105  H97    1.11020       .     S
C105  C103   1.56065       .     S
C105  C108   1.53868       .     S
C105  C111   1.54462       .     S
C106  C100   1.42144       .     D
C106  C112   1.19768       .     S
C107  C101   1.42143       .     S
C107  C113   1.19768       .     S
C108  C102   1.53885       .     S
C108  C105   1.53868       .     S
C108  C110   1.52834       .     S
C108  N115   1.45702       .     S
C109  C103   1.53885       .     S
C109  C104   1.53868       .     D
C109  C111   1.52834       .     S
C109  N114   1.45702       .     S
C110  C103   1.54475       .     S
C110  C104   1.54462       .     S
C110  C108   1.52834       .     S
C110  C112   1.45275       .     S
C111  C102   1.54474       .     D
C111  C105   1.54462       .     S
C111  C109   1.52834       .     T
C111  C113   1.45274       .     S
C112  C106   1.19768       .     D
C112  C110   1.45275       .     S
C113  C107   1.19768       .     S
C113  C111   1.45274       .     S
N114  C109   1.45702       .     S
N114  O120   1.30030       .     S
N114  O121   1.30022       .     S
N115  C108   1.45702       .     S
N115  O122   1.30030       .     S
N115  O123   1.30022       .     S
O116  Zn95   1.16086       .     S
O116  C100   1.22239       .     S
O117  Zn94   1.19455       .     S
O117  C101   1.22239       .     S
O118  Zn95   2.50847       .     S
O118  C100   1.22226       .     S
O119  Zn94   2.53402       .     S
O119  C101   1.22226       .     S
O120  N114   1.30030       .     S
O121  N114   1.30022       .     S
O122  N115   1.30030       .     S
O123  N115   1.30022       .     S
