data_I
_chemical_name_common  'nh3_hybrid_1.00/cif/sample_3'
_cell_length_a 15.77511
_cell_length_b 16.41081
_cell_length_c 22.01273
_cell_angle_alpha 92.33146
_cell_angle_beta  91.17863
_cell_angle_gamma 84.43390
_space_group_name_H-M_alt      'P 1'


loop_
_space_group_symop_operation_xyz
  'x, y, z' 

loop_
_atom_site_label
_atom_site_fract_x
_atom_site_fract_y
_atom_site_fract_z
_atom_site_type_symbol
H0    0.9935309 0.0043985844 0.31356505     H
H1    0.9908585 0.15348184 0.33080003     H
H2    0.19227673 0.6060147 0.1789282     H
H3    0.853666 0.58411145 0.34055296     H
H4    0.33055338 0.17516136 0.1702391     H
H5    0.050931685 0.87404585 0.31689972     H
H6    0.13249427 0.88552165 0.19297144     H
H7    0.20094852 0.011327505 0.19010094     H
H8    0.98286974 0.7481506 0.32014328     H
H9    0.18953338 0.7551298 0.19601946     H
C10   0.03675152 0.12195909 0.3000355     C
C11   0.1465538 0.637538 0.20982023     C
C12   0.039219726 0.03691244 0.29070503     C
C13   0.14403147 0.7226016 0.21906573     C
C14   0.09907546 0.99610347 0.2507101     C
C15   0.08436654 0.76340955 0.25920886     C
C16   0.15465099 0.041723013 0.2213595     C
C17   0.029031895 0.71777326 0.28877795     C
C18   0.14990118 0.12653911 0.23094036     C
C19   0.03385087 0.6329304 0.27927977     C
C20   0.10451432 0.9069084 0.23606256     C
C21   0.07888372 0.8526185 0.2738084     C
C22   0.97437257 0.58872783 0.31327713     C
C23   0.20966926 0.17069435 0.19716902     C
N24   0.09099032 0.16540039 0.2701348     N
N25   0.09257431 0.594089 0.2399536     N
O26   0.00063016475 0.5306026 0.34348172     O
O27   0.8881296 0.6178922 0.31452492     O
O28   0.18369772 0.22893107 0.16698784     O
O29   0.29588404 0.1413914 0.1961213     O
H30   0.6695172 0.333644 0.34766972     H
H31   0.510421 0.42820942 0.16279778     H
C32   0.26526114 0.33104703 0.28248686     C
C33   0.914677 0.4308064 0.22798066     C
C34   0.63368124 0.35500178 0.30643645     C
C35   0.54625773 0.40685174 0.20403494     C
C36   0.5625064 0.4265597 0.303282     C
C37   0.61743194 0.3352937 0.20718552     C
C38   0.3490014 0.34887537 0.27514938     C
C39   0.83094585 0.41297945 0.23531343     C
C40   0.57844365 0.30370122 0.26361606     C
C41   0.6014936 0.45815694 0.24685146     C
C42   0.5078764 0.37468177 0.2617233     C
C43   0.6720618 0.3871716 0.24874419     C
C44   0.42046955 0.36240593 0.2690064     C
C45   0.75946873 0.39944756 0.24146111     C
N46   0.5328933 0.47785407 0.35566726     N
N47   0.64704496 0.28399932 0.15480025     N
N48   0.61704874 0.5428426 0.23798408     N
N49   0.5628902 0.2190109 0.2724873     N
O50   0.25176555 0.255885 0.29069296     O
O51   0.9281727 0.5059684 0.21977454     O
O52   0.20588021 0.39082348 0.2804636     O
O53   0.9740581 0.37102994 0.2300039     O
O54   0.5870519 0.5155544 0.38899198     O
O55   0.4531576 0.48408243 0.3706477     O
O56   0.5928863 0.246299 0.12147553     O
O57   0.72678065 0.277771 0.13981982     O
O58   0.58871335 0.57885236 0.1890664     O
O59   0.6651556 0.58040315 0.27634814     O
O60   0.51478267 0.18145025 0.23411936     O
O61   0.5912249 0.1830011 0.32140112     O
Zn62  0.06917086 0.47015095 0.24998155    Zn
Zn63  0.10988613 0.28677067 0.2599343    Zn
H64   0.89930665 0.49303395 0.8111879     H
H65   0.28223076 0.27016017 0.6983312     H
H66   0.28092745 0.26653546 0.8086453     H
H67   0.9006434 0.49672258 0.70090127     H
C68   0.085383534 0.3675334 0.17360282     C
C69   0.0936359 0.39348528 0.33580306     C
C70   0.077369936 0.31839472 0.49558195     C
C71   0.10223523 0.44409102 0.014303803     C
O72   0.99945956 0.2554484 0.35232297     O
O73   0.08319834 0.17523846 0.41354084     O
O74   0.17661472 0.5079793 0.15855634     O
C75   0.15666626 0.33737937 0.88225013     C
C76   0.024807421 0.42571574 0.62728626     C
C77   0.02174214 0.41721806 0.88314426     C
C78   0.15966614 0.34576315 0.6263852     C
C79   0.021209434 0.42031944 0.81934994     C
C80   0.16031665 0.34285313 0.6901682     C
C81   0.15878947 0.3386283 0.81842506     C
C82   0.022751946 0.42459688 0.691096     C
C83   0.090391986 0.38055003 0.78687686     C
C84   0.09116764 0.38268653 0.7226682     C
C85   0.95330715 0.4619511 0.7873789     C
C86   0.22825035 0.30126992 0.7221655     C
C87   0.2275035 0.29918694 0.7855376     C
C88   0.9540677 0.46407193 0.7239853     C
C89   0.10894608 0.46004656 0.5025506     C
C90   0.072909705 0.30183136 0.006562829     C
C91   0.07648105 0.31948644 0.43175295     C
C92   0.10241555 0.44260618 0.0780983     C
C93   0.11020818 0.46237782 0.43878186     C
C94   0.07103879 0.29903153 0.07024908     C
C95   0.09342907 0.39176482 0.402912     C
C96   0.08627841 0.36974704 0.10653281     C
C97   0.09304902 0.3883708 0.53088415     C
C98   0.08799702 0.37403247 0.9786098     C
N99   0.08881571 0.37625408 0.91324055     N
N100  0.092558704 0.38666242 0.59628534     N
N101  0.054794464 0.24818684 0.3968846     N
N102  0.122155815 0.5143103 0.11336291     N
N103  0.13154133 0.53556997 0.41120043     N
N104  0.05052223 0.22523503 0.09737623     N
O105  0.12875289 0.30891117 0.20074308     O
O106  0.0501723 0.45203158 0.30865717     O
O107  0.041395392 0.42436144 0.2043724     O
O108  0.13752982 0.33658132 0.3050279     O
O109  0.22204013 0.2980097 0.91313136     O
O110  0.9594407 0.46507585 0.59640473     O
O111  0.95558625 0.45445916 0.91481614     O
O112  0.2257046 0.30833215 0.5946782     O
O113  0.09250801 0.5868976 0.09668541     O
O114  0.18630217 0.5311149 0.36747092     O
O115  0.102940455 0.6073182 0.433676     O
O116  0.9950129 0.22858666 0.1405698     O
O117  0.080633424 0.15395184 0.07490957     O
F118  0.059436306 0.25013435 0.52373177     F
F119  0.11936543 0.5129234 0.98653674     F
F120  0.12652913 0.52666247 0.53745323     F
F121  0.056629665 0.23511258 0.97131085     F
loop_
_geom_bond_atom_site_label_1
_geom_bond_atom_site_label_2
_geom_bond_distance
_geom_bond_site_symmetry_2
_ccdc_geom_bond_type
H0    C12    1.08110   1_655     S
H1    C10    1.08137   1_655     S
H2    C11    1.08142       .     D
H3    O27    1.01405       .     S
H4    O29    1.01398       .     S
H5    C21    1.08528       .     S
H6    C20    1.08528       .     A
H7    C16    1.08525       .     A
H8    C17    1.08525   1_655     A
H9    C13    1.08116       .     S
C10   H1     1.08137   1_455     S
C10   C12    1.39932       .     A
C10   N24    1.36133       .     A
C11   H2     1.08142       .     A
C11   C13    1.39934       .     A
C11   N25    1.36126       .     S
C12   H0     1.08110   1_455     A
C12   C10    1.39932       .     D
C12   C14    1.40668   1_545     S
C13   H9     1.08116       .     S
C13   C11    1.39934       .     A
C13   C15    1.40678       .     A
C14   C12    1.40668   1_565     A
C14   C16    1.39159   1_565     S
C14   C20    1.48064       .     S
C15   C13    1.40678       .     A
C15   C17    1.39154       .     S
C15   C21    1.48065       .     S
C16   H7     1.08525       .     D
C16   C14    1.39159   1_545     S
C16   C18    1.39428       .     S
C17   H8     1.08525   1_455     S
C17   C15    1.39154       .     S
C17   C19    1.39447       .     D
C18   C16    1.39428       .     S
C18   C23    1.47373       .     S
C18   N24    1.37404       .     S
C19   C17    1.39447       .     A
C19   C22    1.47368   1_455     A
C19   N25    1.37383       .     A
C20   H6     1.08528       .     S
C20   C14    1.48064       .     S
C20   C21    1.33849       .     A
C21   H5     1.08528       .     A
C21   C15    1.48065       .     A
C21   C20    1.33849       .     A
C22   C19    1.47368   1_655     S
C22   O26    1.21949   1_655     A
C22   O27    1.39818       .     D
C23   C18    1.47373       .     S
C23   O28    1.21948       .     S
C23   O29    1.39822       .     A
N24   C10    1.36133       .     A
N24   C18    1.37404       .     A
N24   Zn63   2.06417       .     S
N25   C11    1.36126       .     S
N25   C19    1.37383       .     A
N25   Zn62   2.12307       .     S
O26   C22    1.21949   1_455     S
O27   H3     1.01405       .     D
O27   C22    1.39818       .     S
O28   C23    1.21948       .     S
O29   H4     1.01398       .     D
O29   C23    1.39822       .     S
H30   C34    1.11023       .     S
H31   C35    1.11030       .     T
C32   C38    1.39440       .     S
C32   O50    1.29231       .     D
C32   O52    1.29049       .     D
C33   C39    1.39424       .     S
C33   O51    1.29230       .     S
C33   O53    1.29049       .     S
C34   H30    1.11023       .     D
C34   C36    1.54666       .     S
C34   C40    1.54936       .     S
C34   C43    1.55122       .     D
C35   H31    1.11030       .     S
C35   C37    1.54665       .     S
C35   C41    1.54934       .     S
C35   C42    1.55116       .     S
C36   C34    1.54666       .     S
C36   C41    1.52836       .     S
C36   C42    1.53327       .     S
C36   N46    1.45721       .     D
C37   C35    1.54665       .     S
C37   C40    1.52833       .     S
C37   C43    1.53327       .     S
C37   N47    1.45721       .     S
C38   C32    1.39440       .     S
C38   C44    1.18150       .     S
C39   C33    1.39424       .     D
C39   C45    1.18166       .     D
C40   C34    1.54936       .     D
C40   C37    1.52833       .     S
C40   C42    1.53243       .     T
C40   N49    1.45609       .     S
C41   C35    1.54934       .     D
C41   C36    1.52836       .     S
C41   C43    1.53249       .     D
C41   N48    1.45600       .     S
C42   C35    1.55116       .     S
C42   C36    1.53327       .     T
C42   C40    1.53243       .     S
C42   C44    1.42588       .     D
C43   C34    1.55122       .     D
C43   C37    1.53327       .     S
C43   C41    1.53249       .     S
C43   C45    1.42588       .     S
C44   C38    1.18150       .     D
C44   C42    1.42588       .     S
C45   C39    1.18166       .     S
C45   C43    1.42588       .     D
N46   C36    1.45721       .     S
N46   O54    1.30025       .     S
N46   O55    1.30028       .     S
N47   C37    1.45721       .     S
N47   O56    1.30025       .     S
N47   O57    1.30028       .     S
N48   C41    1.45600       .     S
N48   O58    1.29972       .     D
N48   O59    1.30041       .     S
N49   C40    1.45609       .     S
N49   O60    1.30047       .     S
N49   O61    1.29965       .     S
O50   C32    1.29231       .     S
O50   Zn63   2.33885       .     S
O51   C33    1.29230       .     D
O51   Zn62   2.33502   1_655     D
O52   C32    1.29049       .     D
O52   Zn62   2.50257       .     S
O53   C33    1.29049       .     T
O53   Zn63   2.52558   1_655     S
O54   N46    1.30025       .     D
O55   N46    1.30028       .     S
O56   N47    1.30025       .     S
O57   N47    1.30028       .     S
O58   N48    1.29972       .     D
O59   N48    1.30041       .     S
O60   N49    1.30047       .     S
O61   N49    1.29965       .     D
Zn62  N25    2.12307       .     D
Zn62  O51    2.33502   1_455     A
Zn62  O52    2.50257       .     A
Zn62  Zn63   3.03150       .     D
Zn62  O105   2.89586       .     S
Zn62  O107   1.32251       .     D
Zn63  N24    2.06417       .     S
Zn63  O50    2.33885       .     A
Zn63  O53    2.52558   1_455     A
Zn63  Zn62   3.03150       .     S
Zn63  O106   2.94996       .     A
Zn63  O108   1.35241       .     A
H64   C85    1.08299       .     S
H65   C86    1.08319       .     S
H66   C87    1.08308       .     D
H67   C88    1.08283       .     D
C68   C96    1.47871       .     S
C68   O105   1.28560       .     S
C68   O107   1.28547       .     S
C69   C95    1.47874       .     S
C69   O106   1.28544       .     A
C69   O108   1.28563       .     A
C70   C91    1.40566       .     A
C70   C97    1.39942       .     A
C70   F118   1.35795       .     S
C71   C92    1.40543       .     S
C71   C98    1.39964   1_554     A
C71   F119   1.35823   1_554     A
O72   N101   1.30096   1_655     A
O73   N101   1.30125       .     S
O74   N102   1.30171       .     A
C75   C81    1.40708       .     S
C75   N99    1.37120       .     A
C75   O109   1.34934       .     A
C76   C82    1.40657       .     A
C76   N100   1.37123       .     S
C76   O110   1.34919   1_455     S
C77   C79    1.40710       .     S
C77   N99    1.37106       .     D
C77   O111   1.34917   1_455     S
C78   C80    1.40658       .     D
C78   N100   1.37102       .     S
C78   O112   1.34931       .     S
C79   C77    1.40710       .     A
C79   C83    1.40853       .     A
C79   C85    1.40556   1_455     S
C80   C78    1.40658       .     A
C80   C84    1.40882       .     A
C80   C86    1.40586       .     S
C81   C75    1.40708       .     A
C81   C83    1.40848       .     S
C81   C87    1.40573       .     A
C82   C76    1.40657       .     D
C82   C84    1.40887       .     D
C82   C88    1.40561   1_455     D
C83   C79    1.40853       .     D
C83   C81    1.40848       .     S
C83   C84    1.41560       .     D
C84   C80    1.40882       .     S
C84   C82    1.40887       .     D
C84   C83    1.41560       .     S
C85   H64    1.08299       .     S
C85   C79    1.40556   1_655     D
C85   C88    1.39764       .     D
C86   H65    1.08319       .     A
C86   C80    1.40586       .     A
C86   C87    1.39712       .     D
C87   H66    1.08308       .     S
C87   C81    1.40573       .     D
C87   C86    1.39712       .     S
C88   H67    1.08283       .     A
C88   C82    1.40561   1_655     A
C88   C85    1.39764       .     S
C89   C93    1.40640       .     A
C89   C97    1.39958       .     A
C89   F120   1.35797       .     S
C90   C94    1.40554       .     S
C90   C98    1.39973   1_554     D
C90   F121   1.35800   1_554     D
C91   C70    1.40566       .     S
C91   C95    1.41819       .     S
C91   N101   1.43842       .     S
C92   C71    1.40543       .     S
C92   C96    1.41870       .     A
C92   N102   1.43912       .     A
C93   C89    1.40640       .     A
C93   C95    1.41874       .     A
C93   N103   1.43902       .     S
C94   C90    1.40554       .     S
C94   C96    1.41890       .     A
C94   N104   1.43903       .     A
C95   C69    1.47874       .     A
C95   C91    1.41819       .     S
C95   C93    1.41874       .     A
C96   C68    1.47871       .     S
C96   C92    1.41870       .     A
C96   C94    1.41890       .     A
C97   C70    1.39942       .     A
C97   C89    1.39958       .     S
C97   N100   1.44127       .     S
C98   C71    1.39964   1_556     S
C98   C90    1.39973   1_556     D
C98   N99    1.44125       .     S
N99   C75    1.37120       .     D
N99   C77    1.37106       .     S
N99   C98    1.44125       .     S
N100  C76    1.37123       .     A
N100  C78    1.37102       .     A
N100  C97    1.44127       .     S
N101  O72    1.30096   1_455     A
N101  O73    1.30125       .     A
N101  C91    1.43842       .     S
N102  O74    1.30171       .     A
N102  C92    1.43912       .     S
N102  O113   1.30114       .     A
N103  C93    1.43902       .     D
N103  O114   1.30171       .     D
N103  O115   1.30133       .     D
N104  C94    1.43903       .     D
N104  O116   1.30173   1_455     S
N104  O117   1.30134       .     D
O105  Zn62   2.89586       .     S
O105  C68    1.28560       .     S
O106  Zn63   2.94996       .     S
O106  C69    1.28544       .     S
O107  Zn62   1.32251       .     S
O107  C68    1.28547       .     S
O108  Zn63   1.35241       .     S
O108  C69    1.28563       .     S
O109  C75    1.34934       .     S
O110  C76    1.34919   1_655     S
O111  C77    1.34917   1_655     S
O112  C78    1.34931       .     S
O113  N102   1.30114       .     S
O114  N103   1.30171       .     S
O115  N103   1.30133       .     S
O116  N104   1.30173   1_655     S
O117  N104   1.30134       .     S
F118  C70    1.35795       .     S
F119  C71    1.35823   1_556     S
F120  C89    1.35797       .     S
F121  C90    1.35800   1_556     S
