data_I
_chemical_name_common  'nh3_hybrid_1.00/cif/sample_4'
_cell_length_a 15.71163
_cell_length_b 16.29184
_cell_length_c 22.11032
_cell_angle_alpha 92.73887
_cell_angle_beta  91.51957
_cell_angle_gamma 83.51977
_space_group_name_H-M_alt      'P 1'


loop_
_space_group_symop_operation_xyz
  'x, y, z' 

loop_
_atom_site_label
_atom_site_fract_x
_atom_site_fract_y
_atom_site_fract_z
_atom_site_type_symbol
Zn0   0.7941976 0.23058423 0.09462853    Zn
Zn1   0.7352662 0.40638652 0.056989346    Zn
H2    0.5653777 0.28111154 0.6384757     H
H3    0.96774185 0.34011337 0.510218     H
H4    0.83694124 0.42835864 0.80452967     H
H5    0.6382712 0.42176834 0.35691097     H
H6    0.76416665 0.18791583 0.91421586     H
H7    0.81941825 0.22530435 0.22303297     H
H8    0.75204635 0.18673046 0.803687     H
H9    0.8352561 0.2183372 0.33302754     H
H10   0.4905056 0.27226764 0.5518453     H
H11   0.04385841 0.34403893 0.59660953     H
H12   0.86666524 0.5056688 0.9021115     H
H13   0.57023203 0.49472785 0.2671872     H
C14   0.8209317 0.3764123 0.82916665     C
C15   0.6776931 0.37951067 0.3270463     C
C16   0.83305514 0.376308 0.89212304     C
C17   0.6640365 0.3813375 0.264285     C
C18   0.8102302 0.30851355 0.9237966     C
C19   0.7170477 0.3264754 0.22572199     C
C20   0.7812835 0.24063718 0.89103717     C
C21   0.77852744 0.26815382 0.25148016     C
C22   0.7732959 0.24013703 0.82818216     C
C23   0.78855395 0.26466998 0.31408694     C
C24   0.7924427 0.30821553 0.7969217     C
C25   0.7385535 0.3205712 0.35221204     C
C26   0.81443506 0.30684307 0.99033916     C
C27   0.7114722 0.3292125 0.15916894     C
C28   0.82418907 0.3260597 0.4448152     C
C29   0.7078027 0.29952562 0.7040996     C
C30   0.677618 0.3014104 0.4494503     C
C31   0.8567956 0.31461564 0.69900125     C
C32   0.6829603 0.29997826 0.5132467     C
C33   0.8511914 0.31720233 0.635254     C
C34   0.7626004 0.31018114 0.5424132     C
C35   0.771153 0.3086126 0.60616195     C
C36   0.8337746 0.32225165 0.5078834     C
C37   0.6994189 0.29874063 0.64079756     C
C38   0.61143893 0.28892404 0.5484642     C
C39   0.9227323 0.32818154 0.6000219     C
C40   0.6205385 0.2889508 0.6118247     C
C41   0.91290206 0.33104193 0.5368035     C
C42   0.87518966 0.44521973 0.9214668     C
C43   0.58993936 0.43703976 0.24218383     C
N44   0.74713665 0.31568706 0.4169264     N
N45   0.78550833 0.30726027 0.7318706     N
O46   0.79614013 0.3745092 0.022697449     O
O47   0.7297446 0.2616065 0.12676056     O
O48   0.69173676 0.39924145 0.13416155     O
O49   0.8341481 0.23687421 0.015296698     O
O50   0.89116466 0.34101966 0.41159043     O
O51   0.6385204 0.29356742 0.73775905     O
O52    0.60394 0.2880075 0.41982064     O
O53   0.9328352 0.31866893 0.72815746     O
O54   0.5330977 0.27913544 0.5206905     O
O55   0.0013203621 0.33693582 0.6277414     O
O56   0.9240804 0.43412086 0.9648632     O
O57   0.5467395 0.4167235 0.19849989     O
H58   0.33201286 0.21445054 0.14074856     H
H59   0.1939435 0.42509258 0.007709599     H
H60   0.21385019 0.35184124 0.17798758     H
H61   0.31210616 0.2877019 0.97047055     H
H62   0.222161 0.18395732 0.03975026     H
H63   0.30379537 0.4555858 0.108707875     H
C64   0.60500205 0.3167046 0.06816264     C
C65   0.92095447 0.32283857 0.080295496     C
C66   0.23681423 0.33738202 0.13121219     C
C67   0.28914213 0.30216116 0.017245952     C
C68   0.30007032 0.26192886 0.110797085     C
C69   0.22588672 0.37761497 0.037664957     C
C70   0.514694 0.31736398 0.06984386     C
C71   0.011262413 0.32217917 0.07861429     C
C72   0.28458276 0.39438134 0.09319553     C
C73   0.24137436 0.24516247 0.055266522     C
C74    0.34624 0.31894138 0.072805725     C
C75   0.17971633 0.32060176 0.0756524     C
C76   0.4385456 0.31804115 0.071214326     C
C77   0.08741139 0.3215027 0.07724772     C
O78   0.6363623 0.38788387 0.070428245     O
O79   0.8895941 0.25165927 0.07802989     O
O80   0.6516598 0.24500139 0.06411027     O
O81   0.87429655 0.39454174 0.08434785     O
H82   0.88989294 0.5882357 0.07091816     H
H83   0.7030936 0.045668364 0.007016431     H
H84   0.62079215 0.6311006 0.047088683     H
H85   0.8418457 0.011924982 0.17248257     H
H86   0.6255655 0.78123534 0.060037494     H
H87   0.834362 0.86244184 0.1627737     H
C88   0.8385621 0.71638733 0.07287688     C
C89   0.7294263 0.9197714 0.032384157     C
C90   0.83215547 0.63074905 0.067900844     C
C91   0.73250496 0.0056414604 0.040999997     C
C92   0.6819703 0.65450114 0.05499086     C
C93   0.8093952 0.98704636 0.13330339     C
C94   0.6848921 0.74044466 0.061634943     C
C95   0.80599093 0.9011109 0.12739784     C
C96   0.7637278 0.77321696 0.07005265     C
C97   0.7664883 0.86558187 0.07629451     C
Br98  0.95120317 0.7513848 0.07954054    Br
Br99  0.67819494 0.88039696 0.9583923    Br
N100  0.754909 0.60076904 0.058544334     N
N101  0.77252406 0.038506746 0.09062666     N
loop_
_geom_bond_atom_site_label_1
_geom_bond_atom_site_label_2
_geom_bond_distance
_geom_bond_site_symmetry_2
_ccdc_geom_bond_type
Zn0   Zn1    3.05639       .     S
Zn0   O47    1.29382       .     S
Zn0   O49    1.88978       .     D
Zn0   O79    1.62987       .     S
Zn0   O80    2.31130       .     S
Zn0   N101   3.18257       .     D
Zn1   Zn0    3.05639       .     A
Zn1   O46    1.28377       .     A
Zn1   O48    1.86858       .     S
Zn1   O78    1.65308       .     S
Zn1   O81    2.24068       .     S
Zn1   N100   3.21481       .     A
H2    C40    1.08347       .     A
H3    C41    1.08336       .     S
H4    C14    1.08425       .     A
H5    C15    1.08426       .     S
H6    C20    1.08363       .     A
H7    C21    1.08349       .     S
H8    C22    1.08296       .     D
H9    C23    1.08281       .     D
H10   O54    0.99174       .     S
H11   O55    0.99164       .     S
H12   C42    1.08556       .     S
H13   C43    1.08561       .     S
C14   H4     1.08425       .     A
C14   C16    1.40000       .     A
C14   C24    1.40097       .     A
C15   H5     1.08426       .     A
C15   C17    1.39974       .     S
C15   C25    1.40057       .     S
C16   C14    1.40000       .     S
C16   C18    1.41972       .     A
C16   C42    1.48156       .     A
C17   C15    1.39974       .     A
C17   C19    1.41999       .     S
C17   C43    1.48034       .     A
C18   C16    1.41972       .     S
C18   C20    1.40494       .     A
C18   C26    1.47242       .     A
C19   C17    1.41999       .     S
C19   C21    1.40556       .     A
C19   C27    1.47430       .     S
C20   H6     1.08363       .     S
C20   C18    1.40494       .     S
C20   C22    1.39180       .     D
C21   H7     1.08349       .     S
C21   C19    1.40556       .     D
C21   C23    1.39217       .     S
C22   H8     1.08296       .     A
C22   C20    1.39180       .     A
C22   C24    1.39928       .     S
C23   H9     1.08281       .     S
C23   C21    1.39217       .     A
C23   C25    1.39908       .     A
C24   C14    1.40097       .     S
C24   C22    1.39928       .     A
C24   N45    1.43901       .     S
C25   C15    1.40057       .     A
C25   C23    1.39908       .     S
C25   N44    1.43878       .     D
C26   C18    1.47242       .     S
C26   O46    1.29375   1_556     D
C26   O49    1.29275   1_556     S
C27   C19    1.47430       .     D
C27   O47    1.29349       .     S
C27   O48    1.29417       .     S
C28   C36    1.40217       .     D
C28   N44    1.36785       .     A
C28   O50    1.34996       .     A
C29   C37    1.40191       .     S
C29   N45    1.36786       .     S
C29   O51    1.34979       .     S
C30   C32    1.41198       .     A
C30   N44    1.37085       .     A
C30   O52    1.34910       .     S
C31   C33    1.41223       .     A
C31   N45    1.37069       .     S
C31   O53    1.34913       .     A
C32   C30    1.41198       .     S
C32   C34    1.41531       .     D
C32   C38    1.41668       .     D
C33   C31    1.41223       .     S
C33   C35    1.41525       .     S
C33   C39    1.41683       .     S
C34   C32    1.41531       .     S
C34   C35    1.41352       .     A
C34   C36    1.40760       .     A
C35   C33    1.41525       .     A
C35   C34    1.41352       .     A
C35   C37    1.40750       .     S
C36   C28    1.40217       .     S
C36   C34    1.40760       .     S
C36   C41    1.40152       .     A
C37   C29    1.40191       .     A
C37   C35    1.40750       .     A
C37   C40    1.40161       .     S
C38   C32    1.41668       .     A
C38   C40    1.40440       .     S
C38   O54    1.38291       .     A
C39   C33    1.41683       .     A
C39   C41    1.40462       .     S
C39   O55    1.38269   1_655     A
C40   H2     1.08347       .     S
C40   C37    1.40161       .     S
C40   C38    1.40440       .     S
C41   H3     1.08336       .     D
C41   C36    1.40152       .     S
C41   C39    1.40462       .     D
C42   H12    1.08556       .     S
C42   C16    1.48156       .     A
C42   O56    1.22047       .     A
C43   H13    1.08561       .     S
C43   C17    1.48034       .     S
C43   O57    1.22005       .     A
N44   C25    1.43878       .     A
N44   C28    1.36785       .     S
N44   C30    1.37085       .     A
N45   C24    1.43901       .     S
N45   C29    1.36786       .     A
N45   C31    1.37069       .     S
O46   Zn1    1.28377       .     D
O46   C26    1.29375   1_554     S
O47   Zn0    1.29382       .     D
O47   C27    1.29349       .     S
O48   Zn1    1.86858       .     D
O48   C27    1.29417       .     S
O49   Zn0    1.88978       .     S
O49   C26    1.29275   1_554     T
O50   C28    1.34996       .     S
O51   C29    1.34979       .     S
O52   C30    1.34910       .     S
O53   C31    1.34913       .     S
O54   H10    0.99174       .     S
O54   C38    1.38291       .     S
O55   H11    0.99164       .     S
O55   C39    1.38269   1_455     S
O56   C42    1.22047       .     S
O57   C43    1.22005       .     S
H58   C68    1.11016       .     S
H59   C69    1.11021       .     S
H60   C66    1.11023       .     S
H61   C67    1.11023   1_556     S
H62   C73    1.11035       .     S
H63   C72    1.11031       .     S
C64   C70    1.41918       .     S
C64   O78    1.30850       .     S
C64   O80    1.30776       .     S
C65   C71    1.41917   1_655     S
C65   O79    1.30850       .     T
C65   O81    1.30776       .     S
C66   H60    1.11023       .     D
C66   C68    1.54842       .     S
C66   C72    1.54840       .     D
C66   C75    1.53409       .     S
C67   H61    1.11023   1_554     S
C67   C69    1.54844       .     T
C67   C73    1.54844       .     S
C67   C74    1.53408       .     S
C68   H58    1.11016       .     S
C68   C66    1.54842       .     S
C68   C73    1.54833       .     S
C68   C74    1.53412       .     S
C69   H59    1.11021       .     S
C69   C67    1.54844       .     S
C69   C72    1.54833       .     S
C69   C75    1.53408       .     S
C70   C64    1.41918       .     S
C70   C76    1.19639       .     S
C71   C65    1.41917   1_455     S
C71   C77    1.19640       .     S
C72   H63    1.11031       .     S
C72   C66    1.54840       .     S
C72   C69    1.54833       .     S
C72   C74    1.53419       .     S
C73   H62    1.11035       .     S
C73   C67    1.54844       .     S
C73   C68    1.54833       .     T
C73   C75    1.53416       .     S
C74   C67    1.53408       .     D
C74   C68    1.53412       .     S
C74   C72    1.53419       .     S
C74   C76    1.45003       .     S
C75   C66    1.53409       .     A
C75   C69    1.53408       .     A
C75   C73    1.53416       .     A
C75   C77    1.45003       .     S
C76   C70    1.19639       .     S
C76   C74    1.45003       .     A
C77   C71    1.19640       .     A
C77   C75    1.45003       .     A
O78   Zn1    1.65308       .     A
O78   C64    1.30850       .     A
O79   Zn0    1.62987       .     S
O79   C65    1.30850       .     A
O80   Zn0    2.31130       .     A
O80   C64    1.30776       .     A
O81   Zn1    2.24068       .     S
O81   C65    1.30776       .     S
H82   C90    1.08004       .     A
H83   C91    1.07878       .     S
H84   C92    1.08039       .     S
H85   C93    1.07903   1_545     S
H86   C94    1.08277       .     S
H87   C95    1.08286       .     A
C88   C90    1.40900       .     A
C88   C96    1.41402       .     A
C88   Br98   1.91959       .     S
C89   C91    1.40893   1_565     S
C89   C97    1.41314       .     A
C89   Br99   1.91892   1_554     A
C90   H82    1.08004       .     A
C90   C88    1.40900       .     A
C90   N100   1.36572       .     A
C91   H83    1.07878       .     S
C91   C89    1.40893   1_545     A
C91   N101   1.36721       .     A
C92   H84    1.08039       .     A
C92   C94    1.40666       .     S
C92   N100   1.36423       .     S
C93   H85    1.07903   1_565     A
C93   C95    1.40681       .     S
C93   N101   1.36596   1_565     S
C94   H86    1.08277       .     S
C94   C92    1.40666       .     S
C94   C96    1.40765       .     S
C95   H87    1.08286       .     S
C95   C93    1.40681       .     S
C95   C97    1.40654       .     S
C96   C88    1.41402       .     S
C96   C94    1.40765       .     S
C96   C97    1.50993       .     S
C97   C89    1.41314       .     S
C97   C95    1.40654       .     S
C97   C96    1.50993       .     S
Br98  C88    1.91959       .     S
Br99  C89    1.91892   1_556     S
N100  Zn1    3.21481       .     S
N100  C90    1.36572       .     S
N100  C92    1.36423       .     S
N101  Zn0    3.18257       .     S
N101  C91    1.36721       .     S
N101  C93    1.36596   1_545     S
