data_I
_chemical_name_common  'nh3_samples/cif/sample_4'
_cell_length_a 12.07001
_cell_length_b 11.77637
_cell_length_c 24.89059
_cell_angle_alpha 102.37394
_cell_angle_beta  101.52469
_cell_angle_gamma 95.42709
_space_group_name_H-M_alt      'P 1'


loop_
_space_group_symop_operation_xyz
  'x, y, z' 

loop_
_atom_site_label
_atom_site_fract_x
_atom_site_fract_y
_atom_site_fract_z
_atom_site_type_symbol
H0    0.20103964 0.025083734 0.8348895     H
H1    0.29387444 0.2625941 0.7532154     H
H2    0.2808504 0.36164632 0.91583014     H
H3    0.37296808 0.051366832 0.7731806     H
H4    0.45227122 0.39097664 0.8536315     H
H5    0.35965008 0.15332025 0.9352235     H
C6    0.5521279 0.18057047 0.8783591     C
C7    0.10178215 0.23771179 0.8106369     C
C8    0.34335333 0.17805244 0.8940427     C
C9    0.31026658 0.23763655 0.79435134     C
C10   0.25911564 0.107112974 0.8392502     C
C11   0.39439073 0.30875623 0.8491786     C
C12   0.22063136 0.22261329 0.82902646     C
C13   0.43301576 0.19357066 0.85954535     C
C14   0.30290288 0.29349023 0.8834745     C
C15   0.35088545 0.12201245 0.80495137     C
O16   0.612544 0.25581563 0.9227088     O
O17   0.0414831 0.163148 0.76622003     O
O18   0.5914989 0.09451167 0.84999794     O
O19   0.06252818 0.3244519 0.8389307     O
H20   0.20049231 0.030200249 0.3460566     H
H21   0.4441264 0.383838 0.34167188     H
H22   0.37958804 0.16196415 0.43706235     H
H23   0.27252364 0.25209048 0.25190842     H
H24   0.29835913 0.37291533 0.4169126     H
H25   0.3502763 0.041966856 0.2710805     H
O26   0.5796911 0.0887654 0.33117288     O
C27   0.549318 0.17171599 0.36488488     C
C28   0.099016696 0.24218698 0.32352632     C
C29   0.35295364 0.18250808 0.3952796     C
C30   0.2953439 0.2306898 0.29350534     C
C31   0.3108779 0.29739225 0.38447434     C
C32   0.33727452 0.115946285 0.3041777     C
C33   0.25774986 0.109140925 0.34534687     C
C34   0.3901559 0.3039779 0.3433264     C
C35   0.21779682 0.22363026 0.33470708     C
C36   0.43036228 0.18973006 0.35393566     C
O37   0.6196094 0.23900767 0.40785715     O
O38   0.028732082 0.17491701 0.28054485     O
O39   0.0686504 0.32515928 0.35722905     O
H40   0.6372158 0.6686668 0.7906744     H
H41   0.7245818 0.685283 0.7420548     H
H42   0.815779 0.5313488 0.7647152     H
H43   0.7195149 0.5120059 0.80868584     H
H44   0.67672616 0.7658629 0.88873386     H
H45   0.7675772 0.61608034 0.91246134     H
H46   0.90486634 0.8053338 0.7776399     H
H47   0.02847898 0.75959045 0.886492     H
H48   0.8024621 0.86622816 0.920961     H
H49   0.8974371 0.7156008 0.9427635     H
C50   0.94122225 0.5199582 0.8711041     C
C51   0.71427864 0.8993655 0.8133099     C
C52   0.72474813 0.68135774 0.7863603     C
C53   0.78405243 0.57728773 0.80118835     C
C54    0.76851 0.78420603 0.8879541     C
C55   0.90550506 0.8145746 0.8232444     C
C56   0.7781417 0.7991783 0.8281486     C
C57   0.882966 0.6208778 0.85467976     C
C58   0.82980084 0.68137276 0.90337485     C
C59   0.9697681 0.71802217 0.84474397     C
N60   0.96476537 0.9309467 0.85312665     N
N61   0.040413022 0.66949123 0.8061512     N
O62   0.88239956 0.41427395 0.8562769     O
O63   0.60610324 0.87395084 0.78687096     O
O64   0.04640627 0.5464195 0.90047973     O
O65   0.77012396 0.0061041117 0.8310632     O
O66   0.9923461 0.0040574074 0.82381546     O
O67   0.9685199 0.9691013 0.90667737     O
O68   0.9966433 0.6272931 0.75252336     O
O69   0.15038478 0.6783923 0.8246257     O
H70   0.70840424 0.011853985 0.059972875     H
H71   0.9352979 0.40350962 0.12617211     H
H72   0.65322614 0.20511624 0.1340736     H
H73   0.99047875 0.21024951 0.052075874     H
H74   0.70433176 0.3517658 0.06340541     H
H75   0.93937564 0.063601986 0.12274853     H
C76   0.8902416 0.26227254 0.20901763     C
C77   0.75346315 0.15309316 0.9771318     C
C78   0.7288866 0.20596996 0.11502076     C
C79   0.9148317 0.2093969 0.07112824     C
C80   0.75801754 0.28727397 0.07710998     C
C81   0.8857007 0.12810801 0.10903919     C
C82   0.76017666 0.100143686 0.0752116     C
C83   0.8835282 0.31522202 0.110937916     C
C84   0.7898714 0.18191616 0.03830062     C
C85   0.8538333 0.23344952 0.14784883     C
O86   0.81453735 0.26675203 0.23836368     O
O87   0.8291675 0.14862876 0.947786     O
O88   0.6466835 0.13304052 0.9545351     O
O89   0.9970213 0.2823403 0.2316145     O
H90   0.9235451 0.36242095 0.56323814     H
H91   0.7203915 0.05303421 0.62652725     H
H92   0.02708149 0.19446965 0.6159908     H
H93   0.61691165 0.2210018 0.57379466     H
H94   0.8543804 0.015491859 0.543777     H
H95   0.7899565 0.40010333 0.64578545     H
C96   0.9022345 0.2312328 0.7086753     C
C97   0.80419964 0.31333256 0.62239045     C
C98   0.7420143 0.18395756 0.48095414     C
C99   0.93425393 0.2000735 0.6056377     C
C100  0.70971936 0.21528508 0.58405787     C
C101  0.87842834 0.292958 0.5782489     C
C102  0.7655276 0.12236249 0.61144924     C
C103  0.78464025 0.19514151 0.54092866     C
C104  0.8593418 0.22016187 0.6487571     C
C105  0.83980036 0.10200063 0.5673101     C
O106  0.94119245 0.14200447 0.7242342     O
O107  0.7033011 0.27323157 0.46537226     O
O108  0.89975035 0.3294816 0.74325055     O
O109  0.7447432 0.08575449 0.44635597     O
H110  0.72233665 0.847369 0.32981178     H
H111  0.6530049 0.5988437 0.30294898     H
H112  0.9924913 0.7560198 0.4875254     H
H113  0.047098517 0.59753376 0.25743896     H
C114  0.80292606 0.50621873 0.2534597     C
C115  0.8339177 0.9094646 0.43406835     C
C116  0.81241727 0.629054 0.28117925     C
C117  0.7969139 0.7889819 0.4017112     C
C118  0.72894126 0.6606963 0.30727097     C
C119  0.74296343 0.7729219 0.347334     C
S120  0.8286554 0.67233914 0.43401507     S
S121  0.94209534 0.72232443 0.29015842     S
O122  0.88046443 0.5825929 0.39794567     O
O123  0.9209466 0.7258678 0.49677575     O
O124  0.916771 0.8407746 0.2820318     O
O125  0.012913823 0.7376474 0.34888703     O
O126  0.0164392 0.6634932 0.24339658     O
O127  0.77444404 0.43086028 0.2800108     O
O128  0.8666643 0.9846164 0.4082797     O
O129  0.8152987 0.4744125 0.20271246     O
O130  0.82580966 0.9410641 0.48557806     O
O131  0.7195229 0.61379725 0.44248578     O
Zn132 0.82826257 0.37985572 0.8659359    Zn
Zn133 0.67373294 0.13144678 0.8411899    Zn
Zn134 0.93687713 0.162963 0.9014459    Zn
Zn135 0.86377436 0.16603243 0.7715365    Zn
O136  0.82566816 0.21006556 0.8450257     O
Zn137 0.8633493 0.13421747 0.2758802    Zn
Zn138 0.918103 0.16713057 0.40939242    Zn
Zn139 0.66203064 0.15158802 0.3416069    Zn
Zn140 0.8422996 0.37767592 0.35550317    Zn
O141  0.8214384 0.2076601 0.34559795     O
loop_
_geom_bond_atom_site_label_1
_geom_bond_atom_site_label_2
_geom_bond_distance
_geom_bond_site_symmetry_2
_ccdc_geom_bond_type
H0    C10    1.11036       .     S
H1    C9     1.11037       .     D
H2    C14    1.10122       .     S
H3    C15    1.11029       .     S
H4    C11    1.11040       .     S
H5    C8     1.11014       .     S
C6    C13    1.45362       .     S
C6    O16    1.29322       .     S
C6    O18    1.29220       .     S
C7    C12    1.45592       .     S
C7    O17    1.29018       .     S
C7    O19    1.29632       .     S
C8    H5     1.11014       .     S
C8    C10    1.54552       .     S
C8    C13    1.53071       .     S
C8    C14    1.54374       .     D
C9    H1     1.11037       .     S
C9    C11    1.54610       .     S
C9    C12    1.53267       .     S
C9    C15    1.54680       .     S
C10   H0     1.11036       .     S
C10   C8     1.54552       .     S
C10   C12    1.53337       .     S
C10   C15    1.54655       .     S
C11   H4     1.11040       .     S
C11   C9     1.54610       .     D
C11   C13    1.53150       .     S
C11   C14    1.54444       .     S
C12   C7     1.45592       .     S
C12   C9     1.53267       .     S
C12   C10    1.53337       .     S
C12   C14    1.52974       .     S
C13   C6     1.45362       .     S
C13   C8     1.53071       .     S
C13   C11    1.53150       .     S
C13   C15    1.53373       .     S
C14   H2     1.10122       .     S
C14   C8     1.54374       .     S
C14   C11    1.54444       .     S
C14   C12    1.52974       .     D
C15   H3     1.11029       .     S
C15   C9     1.54680       .     S
C15   C10    1.54655       .     S
C15   C13    1.53373       .     S
O16   C6     1.29322       .     S
O16   Zn133  2.51741       .     S
O17   C7     1.29018       .     S
O17   Zn134  3.82411   1_455     S
O18   C6     1.29220       .     S
O18   Zn135  4.25083       .     S
O19   C7     1.29632       .     S
O19   Zn132  3.12942   1_455     S
H20   C33    1.11020       .     S
H21   C34    1.10542       .     S
H22   C29    1.11015       .     S
H23   C30    1.10562       .     S
H24   C31    1.11002       .     S
H25   C32    1.11005       .     D
O26   C27    1.27754       .     S
O26   Zn139  1.13046       .     S
C27   O26    1.27754       .     D
C27   C36    1.45149       .     S
C27   O37    1.28015       .     S
C28   C35    1.45139       .     S
C28   O38    1.28015       .     S
C28   O39    1.27754       .     S
C29   H22    1.11015       .     S
C29   C31    1.54660       .     S
C29   C33    1.54691       .     S
C29   C36    1.53162       .     S
C30   H23    1.10562       .     S
C30   C32    1.54340       .     S
C30   C34    1.54263       .     S
C30   C35    1.52974       .     S
C31   H24    1.11002       .     S
C31   C29    1.54660       .     S
C31   C34    1.54345       .     S
C31   C35    1.53277       .     S
C32   H25    1.11005       .     S
C32   C30    1.54340       .     S
C32   C33    1.54645       .     S
C32   C36    1.53277       .     D
C33   H20    1.11020       .     S
C33   C29    1.54691       .     S
C33   C32    1.54645       .     D
C33   C35    1.53150       .     S
C34   H21    1.10542       .     S
C34   C30    1.54263       .     S
C34   C31    1.54345       .     S
C34   C36    1.52970       .     S
C35   C28    1.45139       .     S
C35   C30    1.52974       .     S
C35   C31    1.53277       .     S
C35   C33    1.53150       .     S
C36   C27    1.45149       .     S
C36   C29    1.53162       .     S
C36   C32    1.53277       .     D
C36   C34    1.52970       .     S
O37   C27    1.28015       .     S
O37   Zn139  1.93669       .     S
O38   C28    1.28015       .     S
O38   Zn137  1.98254   1_455     S
O39   C28    1.27754       .     S
O39   Zn140  2.85177   1_455     D
H40   C52    1.08279       .     S
H41   C52    1.11322       .     S
H42   C53    1.10955       .     S
H43   C53    1.11308       .     D
H44   C54    1.11331       .     S
H45   C58    1.11337       .     S
H46   C55    1.11526       .     S
H47   C59    1.11523   1_455     S
H48   C54    1.10743       .     S
H49   C58    1.11297       .     S
C50   C57    1.52494       .     S
C50   O62    1.31170       .     S
C50   O64    1.30389   1_655     S
C51   C56    1.53872       .     S
C51   O63    1.31369       .     S
C51   O65    1.30855   1_565     S
C52   H40    1.08279       .     S
C52   H41    1.11322       .     S
C52   C53    1.55076       .     S
C52   C56    1.53846       .     D
C53   H42    1.10955       .     S
C53   H43    1.11308       .     D
C53   C52    1.55076       .     D
C53   C57    1.55485       .     D
C54   H44    1.11331       .     S
C54   H48    1.10743       .     S
C54   C56    1.56150       .     S
C54   C58    1.55446       .     S
C55   H46    1.11526       .     S
C55   C56    1.56293       .     S
C55   C59    1.56289       .     D
C55   N60    1.45192       .     S
C56   C51    1.53872       .     S
C56   C52    1.53846       .     S
C56   C54    1.56150       .     D
C56   C55    1.56293       .     S
C57   C50    1.52494       .     S
C57   C53    1.55485       .     S
C57   C58    1.55421       .     S
C57   C59    1.57024       .     S
C58   H45    1.11337       .     S
C58   H49    1.11297       .     S
C58   C54    1.55446       .     S
C58   C57    1.55421       .     S
C59   H47    1.11523   1_655     S
C59   C55    1.56289       .     S
C59   C57    1.57024       .     S
C59   N61    1.46991   1_655     S
N60   C55    1.45192       .     S
N60   O66    1.30247   1_565     S
N60   O67    1.30228       .     D
N61   C59    1.46991   1_455     S
N61   O68    1.30080   1_455     D
N61   O69    1.30133       .     D
O62   C50    1.31170       .     S
O62   Zn132  0.83875       .     S
O63   C51    1.31369       .     S
O63   Zn133  3.00387   1_565     S
O64   C50    1.30389   1_455     S
O64   Zn134  4.59022   1_455     S
O65   C51    1.30855   1_545     S
O65   Zn135  2.91249       .     S
O66   N60    1.30247   1_545     S
O67   N60    1.30228       .     S
O68   N61    1.30080   1_655     D
O69   N61    1.30133       .     S
H70   C82    1.10850       .     S
H71   C83    1.10846       .     S
H72   C78    1.11011       .     S
H73   C79    1.10995       .     S
H74   C80    1.10854       .     S
H75   C81    1.10864       .     D
C76   C85    1.45237       .     S
C76   O86    1.27694       .     S
C76   O89    1.27634       .     S
C77   C84    1.45237   1_556     S
C77   O87    1.27693       .     S
C77   O88    1.27634       .     S
C78   H72    1.11011       .     S
C78   C80    1.54496       .     S
C78   C82    1.54497       .     S
C78   C85    1.53256       .     S
C79   H73    1.10995       .     S
C79   C81    1.54484       .     S
C79   C83    1.54504       .     S
C79   C84    1.53270       .     S
C80   H74    1.10854       .     S
C80   C78    1.54496       .     S
C80   C83    1.54579       .     D
C80   C84    1.53145       .     S
C81   H75    1.10864       .     S
C81   C79    1.54484       .     S
C81   C82    1.54593       .     S
C81   C85    1.53139       .     S
C82   H70    1.10850       .     S
C82   C78    1.54497       .     D
C82   C81    1.54593       .     S
C82   C84    1.53145       .     S
C83   H71    1.10846       .     S
C83   C79    1.54504       .     S
C83   C80    1.54579       .     S
C83   C85    1.53145       .     S
C84   C77    1.45237   1_554     S
C84   C79    1.53270       .     S
C84   C80    1.53145       .     S
C84   C82    1.53145       .     S
C85   C76    1.45237       .     S
C85   C78    1.53256       .     S
C85   C81    1.53139       .     S
C85   C83    1.53145       .     S
O86   C76    1.27694       .     S
O86   Zn138  4.62088       .     S
O87   C77    1.27693       .     D
O87   Zn135  4.53467       .     D
O88   C77    1.27634       .     S
O88   Zn133  2.90048       .     S
O89   C76    1.27634       .     S
O89   Zn138  5.13240       .     S
H90   C101   1.11055       .     S
H91   C102   1.11045       .     S
H92   C99    1.10997   1_455     S
H93   C100   1.10991       .     S
H94   C105   1.10964       .     S
H95   C97    1.10951       .     S
C96   C104   1.45075       .     S
C96   O106   1.29242       .     S
C96   O108   1.29241       .     S
C97   H95    1.10951       .     S
C97   C100   1.54532       .     S
C97   C101   1.54546       .     S
C97   C104   1.53290       .     S
C98   C103   1.45139       .     S
C98   O107   1.29202       .     S
C98   O109   1.29300       .     S
C99   H92    1.10997   1_655     S
C99   C101   1.54620       .     S
C99   C104   1.53129       .     D
C99   C105   1.54527       .     D
C100  H93    1.10991       .     S
C100  C97    1.54532       .     S
C100  C102   1.54652       .     S
C100  C103   1.53160       .     S
C101  H90    1.11055       .     S
C101  C97    1.54546       .     S
C101  C99    1.54620       .     S
C101  C103   1.53162       .     S
C102  H91    1.11045       .     S
C102  C100   1.54652       .     S
C102  C104   1.53159       .     S
C102  C105   1.54580       .     S
C103  C98    1.45139       .     D
C103  C100   1.53160       .     S
C103  C101   1.53162       .     S
C103  C105   1.53287       .     S
C104  C96    1.45075       .     S
C104  C97    1.53290       .     D
C104  C99    1.53129       .     S
C104  C102   1.53159       .     S
C105  H94    1.10964       .     S
C105  C99    1.54527       .     S
C105  C102   1.54580       .     S
C105  C103   1.53287       .     S
O106  C96    1.29242       .     S
O106  Zn134  4.37577       .     S
O107  C98    1.29202       .     S
O107  Zn140  3.83285       .     S
O108  C96    1.29241       .     D
O108  Zn132  3.28556       .     S
O109  C98    1.29300       .     S
O109  Zn137  4.86733       .     D
H110  C119   1.08748       .     S
H111  C118   1.08763       .     D
H112  O123   0.99060       .     S
H113  O126   0.99072       .     S
C114  C116   1.44603       .     S
C114  O127   1.27551       .     S
C114  O129   1.28112       .     D
C115  C117   1.45186       .     S
C115  O128   1.27679       .     S
C115  O130   1.28234       .     S
C116  C114   1.44603       .     S
C116  C118   1.34334       .     S
C116  S121   1.77091       .     S
C117  C115   1.45186       .     S
C117  C119   1.34408       .     S
C117  S120   1.76917       .     S
C118  H111   1.08763       .     S
C118  C116   1.34334       .     D
C118  C119   1.44745       .     S
C119  H110   1.08748       .     S
C119  C117   1.34408       .     D
C119  C118   1.44745       .     S
S120  C117   1.76917       .     S
S120  O122   1.50225       .     S
S120  O123   1.68178       .     S
S120  O131   1.50211       .     S
S121  C116   1.77091       .     S
S121  O124   1.50233       .     S
S121  O125   1.50284   1_655     S
S121  O126   1.68204   1_655     S
O122  S120   1.50225       .     S
O123  H112   0.99060       .     S
O123  S120   1.68178       .     S
O124  S121   1.50233       .     S
O125  S121   1.50284   1_455     S
O126  H113   0.99072       .     S
O126  S121   1.68204   1_455     S
O127  C114   1.27551       .     S
O127  Zn140  2.14018       .     S
O128  C115   1.27679       .     S
O128  Zn138  2.17282   1_565     S
O129  C114   1.28112       .     S
O129  Zn137  4.77993       .     S
O130  C115   1.28234       .     S
O130  Zn139  4.97996   1_565     S
O131  S120   1.50211       .     S
Zn132 O19    3.12942   1_655     S
Zn132 O62    0.83875       .     S
Zn132 O108   3.28556       .     S
Zn132 O136   1.95078       .     S
Zn133 O16    2.51741       .     S
Zn133 O63    3.00387   1_545     S
Zn133 O88    2.90048       .     S
Zn133 O136   1.94944       .     S
Zn134 O17    3.82411   1_655     S
Zn134 O64    4.59022   1_655     S
Zn134 O106   4.37577       .     S
Zn134 O136   1.95015       .     S
Zn135 O18    4.25083       .     S
Zn135 O65    2.91249       .     S
Zn135 O87    4.53467       .     S
Zn135 O136   1.94965       .     S
O136  Zn132  1.95078       .     S
O136  Zn133  1.94944       .     S
O136  Zn134  1.95015       .     S
O136  Zn135  1.94965       .     S
Zn137 O38    1.98254   1_655     S
Zn137 O109   4.86733       .     S
Zn137 O129   4.77993       .     S
Zn137 O141   1.95078       .     S
Zn138 O86    4.62088       .     S
Zn138 O89    5.13240       .     S
Zn138 O128   2.17282   1_545     S
Zn138 O141   1.94945       .     S
Zn139 O26    1.13046       .     S
Zn139 O37    1.93669       .     S
Zn139 O130   4.97996   1_545     S
Zn139 O141   1.95014       .     S
Zn140 O39    2.85177   1_655     S
Zn140 O107   3.83285       .     S
Zn140 O127   2.14018       .     S
Zn140 O141   1.94965       .     S
O141  Zn137  1.95078       .     S
O141  Zn138  1.94945       .     S
O141  Zn139  1.95014       .     S
O141  Zn140  1.94965       .     S
