data_I
_chemical_name_common  '/home/sibivarshan_m7/MOFDiff/MOFDiff/nh3_all_samples/cif/sample_5'
_cell_length_a 12.85548
_cell_length_b 13.12177
_cell_length_c 20.00594
_cell_angle_alpha 102.72890
_cell_angle_beta  95.57201
_cell_angle_gamma 67.12540
_space_group_name_H-M_alt      'P 1'


loop_
_space_group_symop_operation_xyz
  'x, y, z' 

loop_
_atom_site_label
_atom_site_fract_x
_atom_site_fract_y
_atom_site_fract_z
_atom_site_type_symbol
Zn0   0.7783503 0.12858824 0.36678943    Zn
Zn1   0.54820746 0.31968623 0.372011    Zn
H2    0.5571667 0.49868906 0.18954931     H
H3    0.64067125 0.62550926 0.169578     H
H4    0.5782691 0.60547113 0.40555283     H
H5    0.76877034 0.9545587 0.55391157     H
H6    0.62857044 0.70583385 0.48641056     H
H7    0.78751284 0.88585216 0.3108108     H
H8    0.78891975 0.6846522 0.1691751     H
H9    0.7509452 0.850541 0.12351069     H
H10   0.84030473 0.8554904 0.19812049     H
H11   0.68862295 0.93781483 0.20334364     H
H12   0.6852736 0.82725865 0.5774092     H
C13   0.51649165 0.46321207 0.30972624     C
C14   0.80876523 0.98526293 0.4339186     C
C15   0.62986064 0.6236549 0.22219014     C
C16   0.56247145 0.54566187 0.2995301     C
C17   0.7454517 0.9000465 0.5113622     C
C18   0.6978125 0.82827485 0.5248535     C
C19   0.6651976 0.75836897 0.47140583     C
C20   0.6799102 0.75799125 0.40206882     C
C21   0.73041296 0.83100796 0.38860226     C
C22   0.6457758 0.6880182 0.34604004     C
C23   0.6642275 0.6917019 0.27756098     C
C24   0.7156531 0.76339453 0.26493943     C
C25   0.74727976 0.8321203 0.3205783     C
C26   0.59397733 0.61383367 0.35552388     C
C27   0.5807755 0.55115753 0.23318028     C
C28   0.7627601 0.90242237 0.44395128     C
C29   0.755429 0.8569055 0.17990834     C
N30   0.7378947 0.7623749 0.19587873     N
O31   0.58618855 0.3590308 0.30349928     O
O32   0.91568756 0.950096 0.42167604     O
O33   0.40963843 0.49843433 0.32229242     O
O34   0.7391234 0.08949387 0.44046253     O
H35   0.45711058 0.3948446 0.34583995     H
H36   0.8498084 0.10092496 0.22371934     H
H37   0.33607188 0.15947264 0.4561889     H
H38   0.013353277 0.22350045 0.44464734     H
H39   0.036929797 0.37897694 0.42850137     H
H40   0.026853139 0.3878838 0.34420192     H
H41   0.30135682 0.04133582 0.3550461     H
H42   0.29169953 0.08612805 0.28032103     H
H43   0.065256834 0.17114599 0.20115666     H
H44   0.012044469 0.0719615 0.16937526     H
H45   0.24011888 0.34722674 0.26231554     H
H46   0.28529233 0.45333743 0.2903757     H
C47   0.8676566 0.20271806 0.39143217     C
C48   0.47020417 0.2130515 0.44316185     C
C49   0.9774706 0.20022579 0.39515254     C
C50   0.36230338 0.2095279 0.43013504     C
C51   0.040025815 0.1702109 0.33588132     C
C52   0.28898257 0.27003145 0.3834205     C
C53   0.9938113 0.13374728 0.27281964     C
C54   0.32287568 0.33881176 0.35304913     C
C55   0.8847514 0.13150065 0.27156797     C
C56   0.4303632 0.3420461 0.3688762     C
C57   0.1554241 0.1725884 0.3418966     C
C58   0.17353319 0.2690474 0.37105158     C
N59   0.82260394 0.1673325 0.3298289     N
N60   0.5026256 0.27858666 0.41194823     N
N61   0.80445606 0.2440071 0.45320758     N
N62   0.54483527 0.14723325 0.48877168     N
N63   0.08115788 0.37648243  0.38675     N
N64   0.24710946 0.069732994 0.31496075     N
N65   0.057042543 0.09957827 0.21090855     N
N66   0.24882445 0.40396714 0.3061225     N
O67   0.849124 0.20424683 0.50784326     O
O68   0.7164345 0.3377657 0.45959032     O
O69   0.5136484 0.16410366 0.5515261     O
O70   0.6250682 0.052630015 0.46350682     O
H71   0.080159664 0.86773944 0.95147306     H
H72   0.83106256 0.18362708 0.80865383     H
H73   0.49214208 0.25706184 0.934536     H
H74   0.5181884 0.4540431 0.86415917     H
H75   0.19045487 0.36646765 0.759059     H
H76   0.3703558 0.2121843 0.7766235     H
H77   0.24273217 0.9174603 0.01944983     H
H78   0.26367402 0.9031184 0.93585753     H
H79   0.13560091 0.5667289 0.7364549     H
H80   0.08242984 0.5737503 0.8102177     H
H81   0.21848512 0.17214632 0.019318938     H
H82   0.82207304 0.35354513 0.9318839     H
H83   0.8003992 0.96707326 0.9468386     H
H84   0.83495075 0.9440703 0.8641418     H
H85   0.4306477  0.64463 0.8790258     H
C86   0.6757829 0.20945336 0.013765097     C
C87   0.65396744 0.2339293 0.7277822     C
C88   0.067870855 0.1373365 0.9721419     C
C89   0.95158166 0.19173281 0.9554618     C
C90   0.8862684 0.1247874 0.9312943     C
C91   0.9325809 0.008000495 0.93253094     C
C92   0.044328094 0.9577427 0.95268905     C
C93   0.11282706 0.020163221 0.9703331     C
C94   0.7597604 0.19128929 0.83503586     C
C95   0.6562995 0.22305964 0.8008139     C
C96   0.5595496 0.24398004 0.8373586     C
C97   0.56848836 0.23197672 0.90569896     C
C98   0.6725712 0.20286585 0.9395534     C
C99   0.7708361 0.174182 0.9023312     C
C100  0.4446122 0.4372299 0.84172523     C
C101  0.34400406 0.5257389 0.83595407     C
C102  0.25082937 0.49976978 0.80421394     C
C103  0.26132613 0.38645616 0.7829653     C
C104  0.36276197 0.29923704 0.79187644     C
C105  0.4539227 0.32622284 0.8204192     C
C106  0.14764273 0.19676428 0.98419625     C
C107  0.8971738 0.31658018 0.96172005     C
C108  0.34989578 0.6387129 0.8621663     C
N109  0.23116183 0.96222126 0.98054904     N
N110  0.14781456 0.5846041 0.78932965     N
N111  0.86790884 0.93798447 0.913397     N
O112  0.5888402 0.28239825 0.051113725     O
O113  0.766701 0.14138964 0.039315104     O
O114  0.5651758 0.30785275 0.7024762     O
O115  0.74303657 0.16684419 0.6906775     O
O116  0.13920987 0.26877046 0.9521268     O
O117  0.9324365 0.38031065 0.0023510456     O
O118  0.26848847 0.7263698 0.86654747     O
loop_
_geom_bond_atom_site_label_1
_geom_bond_atom_site_label_2
_geom_bond_distance
_geom_bond_site_symmetry_2
_ccdc_geom_bond_type
Zn0   Zn1    3.03792       .     S
Zn0   O32    2.71119   1_545     S
Zn0   O34    1.83534       .     S
Zn0   N59    1.26534       .     D
Zn0   O113   6.57623       .     S
Zn0   O115   6.43468       .     S
Zn1   Zn0    3.03792       .     A
Zn1   O31    1.73821       .     A
Zn1   O33    2.66453       .     A
Zn1   N60    1.34129       .     S
Zn1   O112   6.38710       .     A
Zn1   O114   6.62771       .     S
H2    C27    1.08361       .     A
H3    C15    1.08171       .     S
H4    C26    1.07678       .     A
H5    C17    1.08395       .     A
H6    C19    1.07611       .     S
H7    C25    1.08011       .     S
H8    N30    1.03134       .     A
H9    C29    1.11037       .     S
H10   C29    1.11070       .     A
H11   C29    1.11109       .     S
H12   C18    1.08278       .     S
C13   C16    1.47625       .     S
C13   O31    1.29673       .     A
C13   O33    1.29847       .     A
C14   C28    1.48009       .     A
C14   O32    1.29797       .     S
C14   O34    1.29660   1_565     A
C15   H3     1.08171       .     A
C15   C23    1.41256       .     S
C15   C27    1.39186       .     A
C16   C13    1.47625       .     A
C16   C26    1.40395       .     S
C16   C27    1.39232       .     S
C17   H5     1.08395       .     D
C17   C18    1.38829       .     S
C17   C28    1.39694       .     S
C18   H12    1.08278       .     D
C18   C17    1.38829       .     S
C18   C19    1.39293       .     S
C19   H6     1.07611       .     A
C19   C18    1.39293       .     A
C19   C20    1.41675       .     A
C20   C19    1.41675       .     S
C20   C21    1.42947       .     A
C20   C22    1.43395       .     S
C21   C20    1.42947       .     A
C21   C25    1.40276       .     S
C21   C28    1.42599       .     A
C22   C20    1.43395       .     A
C22   C23    1.42712       .     S
C22   C26    1.42718       .     S
C23   C15    1.41256       .     A
C23   C22    1.42712       .     S
C23   C24    1.41647       .     A
C24   C23    1.41647       .     S
C24   C25    1.40441       .     S
C24   N30    1.43402       .     S
C25   H7     1.08011       .     A
C25   C21    1.40276       .     A
C25   C24    1.40441       .     A
C26   H4     1.07678       .     S
C26   C16    1.40395       .     A
C26   C22    1.42718       .     A
C27   H2     1.08361       .     S
C27   C15    1.39186       .     A
C27   C16    1.39232       .     A
C28   C14    1.48009       .     S
C28   C17    1.39694       .     S
C28   C21    1.42599       .     D
C29   H9     1.11037       .     S
C29   H10    1.11070       .     D
C29   H11    1.11109       .     D
C29   N30    1.44828       .     D
N30   H8     1.03134       .     S
N30   C24    1.43402       .     D
N30   C29    1.44828       .     S
O31   Zn1    1.73821       .     S
O31   C13    1.29673       .     S
O32   Zn0    2.71119   1_565     A
O32   C14    1.29797       .     A
O33   Zn1    2.66453       .     A
O33   C13    1.29847       .     S
O34   Zn0    1.83534       .     A
O34   C14    1.29660   1_545     A
H35   C56    1.08041       .     A
H36   C55    1.08003       .     A
H37   C50    1.08351       .     S
H38   C49    1.08356   1_455     S
H39   N63    1.04295       .     A
H40   N63    1.04587       .     S
H41   N64    1.04372       .     S
H42   N64    1.04586       .     D
H43   N65    1.04544       .     A
H44   N65    1.04561       .     S
H45   N66    1.04552       .     S
H46   N66    1.04567       .     A
C47   C49    1.39439       .     S
C47   N59    1.37412       .     A
C47   N61    1.42785       .     S
C48   C50    1.40303       .     S
C48   N60    1.36711       .     A
C48   N62    1.42551       .     S
C49   H38    1.08356   1_655     S
C49   C47    1.39439       .     S
C49   C51    1.39321   1_655     S
C50   H37    1.08351       .     S
C50   C48    1.40303       .     S
C50   C52    1.40225       .     D
C51   C49    1.39321   1_455     D
C51   C53    1.40818   1_455     D
C51   C57    1.48858       .     S
C52   C50    1.40225       .     D
C52   C54    1.40441       .     S
C52   C58    1.48536       .     S
C53   C51    1.40818   1_655     S
C53   C55    1.41143       .     A
C53   N65    1.43643   1_655     A
C54   C52    1.40441       .     A
C54   C56    1.40219       .     S
C54   N66    1.43734       .     A
C55   H36    1.08003       .     A
C55   C53    1.41143       .     A
C55   N59    1.36572       .     A
C56   H35    1.08041       .     S
C56   C54    1.40219       .     S
C56   N60    1.36318       .     A
C57   C51    1.48858       .     S
C57   C58    1.36887       .     S
C57   N64    1.43781       .     D
C58   C52    1.48536       .     A
C58   C57    1.36887       .     S
C58   N63    1.43946       .     S
N59   Zn0    1.26534       .     A
N59   C47    1.37412       .     S
N59   C55    1.36572       .     A
N60   Zn1    1.34129       .     S
N60   C48    1.36711       .     S
N60   C56    1.36318       .     A
N61   C47    1.42785       .     S
N61   O67    1.30122       .     S
N61   O68    1.29879       .     S
N62   C48    1.42551       .     S
N62   O69    1.30085       .     S
N62   O70    1.29986       .     S
N63   H39    1.04295       .     D
N63   H40    1.04587       .     S
N63   C58    1.43946       .     S
N64   H41    1.04372       .     S
N64   H42    1.04586       .     S
N64   C57    1.43781       .     S
N65   H43    1.04544       .     S
N65   H44    1.04561       .     S
N65   C53    1.43643   1_455     A
N66   H45    1.04552       .     A
N66   H46    1.04567       .     S
N66   C54    1.43734       .     A
O67   N61    1.30122       .     S
O68   N61    1.29879       .     A
O69   N62    1.30085       .     D
O70   N62    1.29986       .     D
H71   C92    1.08357       .     S
H72   C94    1.06198       .     A
H73   C97    1.08608       .     S
H74   C100   1.08670       .     A
H75   C103   1.08328       .     S
H76   C104   1.08303       .     A
H77   N109   1.04106   1_554     A
H78   N109   1.04430       .     S
H79   N110   1.04195       .     S
H80   N110   1.04352       .     S
H81   C106   1.08376   1_554     A
H82   C107   1.08410       .     A
H83   N111   1.04364       .     S
H84   N111   1.04125       .     A
H85   C108   1.08655       .     S
C86   C98    1.46552   1_554     A
C86   O112   1.31871       .     S
C86   O113   1.30332       .     S
C87   C95    1.49531       .     A
C87   O114   1.32044       .     A
C87   O115   1.31548       .     A
C88   C89    1.42627   1_455     D
C88   C93    1.40997       .     S
C88   C106   1.48617       .     A
C89   C88    1.42627   1_655     S
C89   C90    1.42050       .     S
C89   C107   1.49146       .     A
C90   C89    1.42050       .     S
C90   C91    1.41705       .     A
C90   C99    1.48617       .     S
C91   C90    1.41705       .     S
C91   C92    1.38904   1_645     S
C91   N111   1.43487   1_545     D
C92   H71    1.08357       .     S
C92   C91    1.38904   1_465     D
C92   C93    1.39423   1_565     S
C93   C88    1.40997       .     S
C93   C92    1.39423   1_545     S
C93   N109   1.42932   1_545     S
C94   H72    1.06198       .     S
C94   C95    1.38903       .     S
C94   C99    1.39797       .     S
C95   C87    1.49531       .     A
C95   C94    1.38903       .     A
C95   C96    1.40696       .     S
C96   C95    1.40696       .     A
C96   C97    1.39914       .     S
C96   C105   1.43383       .     A
C97   H73    1.08608       .     D
C97   C96    1.39914       .     D
C97   C98    1.39127       .     S
C98   C86    1.46552   1_556     A
C98   C97    1.39127       .     S
C98   C99    1.40766       .     A
C99   C90    1.48617       .     S
C99   C94    1.39797       .     A
C99   C98    1.40766       .     A
C100  H74    1.08670       .     S
C100  C101   1.37741       .     S
C100  C105   1.38509       .     S
C101  C100   1.37741       .     A
C101  C102   1.42420       .     A
C101  C108   1.48839       .     S
C102  C101   1.42420       .     A
C102  C103   1.40937       .     S
C102  N110   1.41599       .     A
C103  H75    1.08328       .     S
C103  C102   1.40937       .     S
C103  C104   1.38800       .     A
C104  H76    1.08303       .     A
C104  C103   1.38800       .     A
C104  C105   1.38867       .     D
C105  C96    1.43383       .     S
C105  C100   1.38509       .     A
C105  C104   1.38867       .     S
C106  H81    1.08376   1_556     S
C106  C88    1.48617       .     A
C106  O116   1.22070       .     S
C107  H82    1.08410       .     A
C107  C89    1.49146       .     S
C107  O117   1.22032   1_556     S
C108  H85    1.08655       .     S
C108  C101   1.48839       .     D
C108  O118   1.20974       .     S
N109  H77    1.04106   1_556     S
N109  H78    1.04430       .     S
N109  C93    1.42932   1_565     S
N110  H79    1.04195       .     S
N110  H80    1.04352       .     S
N110  C102   1.41599       .     S
N111  H83    1.04364       .     S
N111  H84    1.04125       .     S
N111  C91    1.43487   1_565     S
O112  Zn1    6.38710       .     S
O112  C86    1.31871       .     S
O113  Zn0    6.57623       .     S
O113  C86    1.30332       .     S
O114  Zn1    6.62771       .     S
O114  C87    1.32044       .     S
O115  Zn0    6.43468       .     S
O115  C87    1.31548       .     S
O116  C106   1.22070       .     S
O117  C107   1.22032   1_554     S
O118  C108   1.20974       .     S
