# CIF file generated by MOFDiff
# Generation date: 2025-12-26 06:04:26
# Note: This is a computationally generated structure, not experimentally refined
# Space group: P1 (no symmetry operations beyond identity)
# Occupancy values: Set to 1.0 (fully occupied sites assumed)
# Displacement parameters: Estimated U_iso values (0.05 Å²)

data_I
_chemical_name_common  'Zinc-based MOF (computationally generated)'
_cell_length_a 12.38530
_cell_length_b 13.12473
_cell_length_c 14.67147
_cell_angle_alpha 88.86595
_cell_angle_beta  82.30304
_cell_angle_gamma 83.92123
_space_group_name_H-M_alt      'P 1'


loop_
_space_group_symop_operation_xyz
  'x, y, z' 

loop_
_atom_site_label
_atom_site_fract_x
_atom_site_fract_y
_atom_site_fract_z
_atom_site_type_symbol
Zn0   0.41934115 0.4996651 0.09944121    Zn
Zn1   0.65017277 0.38860673 0.061152477    Zn
H2    0.011741206 0.2566329 0.010175183     H
H3    0.051186815 0.6363077 0.14880735     H
H4    0.24276881 0.6610943 0.16639072     H
H5    0.34315026 0.62999433 0.07165203     H
H6    0.2224012 0.709839 0.054176565     H
H7    0.84756905 0.18271013 0.062368587     H
H8    0.7229223 0.25945893 0.09154234     H
H9    0.7957728 0.26922715 0.9788781     H
H10   0.2932992 0.28252053 0.9358555     H
H11   0.20447348 0.22531214 0.023224093     H
H12   0.1590047 0.27442142 0.91868174     H
H13   0.77098316 0.6074579 0.22803304     H
H14   0.904561 0.6054107 0.25422582     H
H15   0.86584216 0.6660622 0.1501793     H
C16   0.98301494 0.3271195 0.04651537     C
C17   0.08092264 0.5651815 0.11362141     C
C18   0.87117386 0.34119806 0.08050445     C
C19   0.19220906 0.55254173 0.07699339     C
C20   0.8963109 0.50158393 0.14359541     C
C21   0.16893788 0.3885466 0.020365892     C
C22   0.010182367 0.48981848 0.10526817     C
C23   0.054638326 0.40106338 0.057458248     C
C24   0.2549043 0.6418501 0.092089936     C
C25   0.80445313 0.26002324 0.052907694     C
C26   0.21052997 0.2884513 0.9722135     C
C27   0.8558357 0.5991394 0.19673708     C
N28   0.23756449 0.4644133 0.030474653     N
N29   0.8273101 0.4267812 0.1311051     N
C30   0.56594074 0.44235912 0.9085463     C
C31   0.5544305 0.44321185 0.8076177     C
C32   0.5449837 0.4438629 0.72352415     C
C33   0.5343759 0.44417143 0.62294215     C
C34   0.52586085 0.44417983 0.5383039     C
C35   0.5155892 0.44430563 0.43758884     C
C36   0.5067823 0.4443798 0.3533224     C
C37   0.49724823 0.44361004 0.25204346     C
O38   0.5281903 0.37398475 0.9635275     O
O39   0.57162803 0.39518178 0.19507812     O
O40   0.4148445 0.49032724 0.21910402     O
O41   0.6131452 0.5105019 0.944579     O
H42   0.4458102 0.7909822 0.03897044     H
H43   0.32840022 0.9432076 0.102079354     H
H44   0.6245712 0.14762998 0.01769632     H
H45   0.7401152 0.9960279 0.9549522     H
C46   0.6720271 0.7637516 0.0042578992     C
C47   0.6426531 0.93909454 0.07638564     C
C48   0.59936595 0.8539288 0.04524897     C
C49   0.4840495 0.8555593 0.059758153     C
C50   0.41642046 0.94328016 0.0961715     C
C51   0.46173152 0.032164216 0.11969148     C
C52   0.5763118 0.025304675 0.11247811     C
C53   0.65688723 0.09589338 0.07087526     C
C54   0.7298272 0.0007611513 0.03121166     C
C55   0.39026707 0.12568367 0.15537797     C
N56   0.7023035 0.14972174 0.14098173     N
N57   0.8336039 0.9800143 0.06928003     N
O58   0.768181 0.778555 0.96186054     O
O59   0.636807 0.67384416 0.015481068     O
O60   0.29497764 0.11283636 0.20065185     O
O61   0.42738077 0.21475637 0.14256348     O
O62   0.7155848 0.24628747 0.12982862     O
O63   0.727941 0.10272741 0.2152952     O
O64   0.91283345 0.036168575 0.043709755     O
O65   0.84990776 0.9029979 0.12485218     O
loop_
_geom_bond_atom_site_label_1
_geom_bond_atom_site_label_2
_geom_bond_distance
_geom_bond_site_symmetry_2
_geom_bond_type
Zn0  Zn1  3.05504  .  single
Zn0  O40  1.75131  .  single
Zn1  Zn0  3.05504  .  single
Zn1  O39  2.07159  .  single
H3  C17  1.08116  .  aromatic
H4  C24  1.11071  .  aromatic
H5  C24  1.08936  .  aromatic
H6  C24  1.10995  .  aromatic
H7  C25  1.11067  .  aromatic
H8  C25  1.09046  .  aromatic
H10  C26  1.08616  .  aromatic
H12  C26  1.10583  .  single
H13  C27  1.08426  .  single
H14  C27  1.10994  .  single
H15  C27  1.10908  .  single
C16  C18  1.40213  .  single
C17  H3  1.08116  .  single
C17  C19  1.40455  .  single
C17  C22  1.40645  .  single
C18  C16  1.40213  .  single
C18  C25  1.50832  .  single
C18  N29  1.37975  .  single
C19  C17  1.40455  .  single
C19  C24  1.50833  .  single
C19  N28  1.38209  .  single
C20  C27  1.51574  .  single
C20  N29  1.39805  .  aromatic
C21  C23  1.44052  .  aromatic
C21  N28  1.39813  .  aromatic
C22  C17  1.40645  .  aromatic
C22  C23  1.39470  .  aromatic
C23  C21  1.44052  .  aromatic
C23  C22  1.39470  .  aromatic
C24  H4  1.11071  .  aromatic
C24  H5  1.08936  .  single
C24  H6  1.10995  .  single
C24  C19  1.50833  .  single
C25  H7  1.11067  .  single
C25  H8  1.09046  .  single
C25  C18  1.50832  .  single
C26  H10  1.08616  .  single
C26  H12  1.10583  .  double
C27  H13  1.08426  .  single
C27  H14  1.10994  .  single
C27  H15  1.10908  .  triple
C27  C20  1.51574  .  single
N28  C19  1.38209  .  single
N28  C21  1.39813  .  triple
N29  C18  1.37975  .  single
N29  C20  1.39805  .  double
C30  C31  1.50622  .  double
C30  O38  1.27820  .  single
C30  O41  1.27804  .  single
C31  C30  1.50622  .  triple
C31  C32  1.25459  .  single
C32  C31  1.25459  .  triple
C32  C33  1.49884  .  single
C33  C32  1.49884  .  triple
C33  C34  1.26023  .  single
C34  C33  1.26023  .  single
C34  C35  1.49994  .  double
C35  C34  1.49994  .  single
C35  C36  1.25556  .  single
C36  C35  1.25556  .  single
C36  C37  1.50659  .  single
C37  C36  1.50659  .  aromatic
C37  O39  1.28137  .  aromatic
C37  O40  1.28022  .  aromatic
O38  C30  1.27820  .  single
O39  Zn1  2.07159  .  single
O39  C37  1.28137  .  aromatic
O40  Zn0  1.75131  .  double
O40  C37  1.28022  .  double
O41  C30  1.27804  .  aromatic
H42  C49  1.08149  .  single
H43  C50  1.08206  .  single
H44  C53  1.11136  .  single
C46  C48  1.49331  .  single
C46  O59  1.30073  .  double
C47  C48  1.39938  .  double
C48  C46  1.49331  .  single
C48  C47  1.39938  .  single
C48  C49  1.41346  .  single
C49  H42  1.08149  .  single
C49  C48  1.41346  .  aromatic
C49  C50  1.41872  .  aromatic
C50  H43  1.08206  .  aromatic
C50  C49  1.41872  .  single
C51  C52  1.40224  .  aromatic
C51  C55  1.49510  .  double
C52  C51  1.40224  .  single
C52  C53  1.49568  .  aromatic
C53  H44  1.11136  .  single
C53  C52  1.49568  .  single
C53  C54  1.53712  .  single
C53  N56  1.46334  .  aromatic
C54  C53  1.53712  .  double
C55  C51  1.49510  .  single
C55  O60  1.30008  .  single
C55  O61  1.30203  .  single
N56  C53  1.46334  .  single
N56  O62  1.29956  .  single
N56  O63  1.30177  .  single
N57  O65  1.30213  .  single
O59  C46  1.30073  .  single
O60  C55  1.30008  .  single
O61  C55  1.30203  .  single
O62  N56  1.29956  .  single
O63  N56  1.30177  .  single
O65  N57  1.30213  .  single
