data_I
_chemical_name_common  '/home/sibivarshan_m7/MOFDiff/MOFDiff/nh3_all_samples/cif/sample_7'
_cell_length_a 17.12603
_cell_length_b 17.06554
_cell_length_c 22.18207
_cell_angle_alpha 96.40047
_cell_angle_beta  97.08365
_cell_angle_gamma 70.62358
_space_group_name_H-M_alt      'P 1'


loop_
_space_group_symop_operation_xyz
  'x, y, z' 

loop_
_atom_site_label
_atom_site_fract_x
_atom_site_fract_y
_atom_site_fract_z
_atom_site_type_symbol
H0    0.051933307 0.4067535 0.95304614     H
H1    0.017535117 0.51194084 0.1604505     H
H2    0.04318564 0.6046892 0.24686047     H
H3    0.06488826 0.49366626 0.04488601     H
H4    0.2814969 0.3976937 0.1504987     H
H5    0.30812892 0.48715666 0.23962285     H
H6    0.15478131 0.29119277 0.19103053     H
H7    0.251669 0.277634 0.172021     H
H8    0.15391093 0.14628373 0.080959976     H
H9    0.24795324 0.14585973 0.064296074     H
C10   0.12369722 0.24160682 0.9343225     C
C11   0.11705226 0.28960848 0.9937304     C
C12   0.08129582 0.37655988 0.9942548     C
C13   0.08886895 0.42656645 0.046619322     C
C14   0.13160583 0.39086443 0.099715136     C
C15   0.1607379 0.30332676 0.10194981     C
C16   0.15375529 0.25247416 0.04846259     C
C17   0.080932334 0.5076617 0.17680006     C
C18   0.09584018 0.56107724 0.2254502     C
C19   0.24458228 0.49447083 0.22158206     C
C20   0.22948223 0.44238332 0.17189947     C
C21   0.14763983 0.44668308 0.15104277     C
C22   0.17778097 0.55284643 0.24946707     C
C23   0.19155616 0.5917915 0.3100249     C
N24   0.19631155 0.26513872 0.15779582     N
N25   0.18462628 0.163508 0.049383163     N
O26   0.25089145 0.5505413 0.34578758     O
O27   0.13408098 0.65552014 0.32907894     O
O28   0.07653868 0.27598265 0.88908416     O
O29   0.18393001 0.17429952 0.92734504     O
H30   0.34056386 0.05543006 0.27109322     H
H31   0.25390866 0.43831462 0.46756062     H
H32   0.22205743 0.39589617 0.5254545     H
H33   0.34341386 0.5015461 0.5943094     H
H34   0.2998935 0.44464684 0.62901396     H
H35   0.4998333 0.33275893 0.63735634     H
H36   0.56233275 0.21272206 0.5737699     H
H37   0.57101977 0.036693312 0.37342426     H
H38   0.4767553 0.9201521 0.2888918     H
H39   0.56455153 0.9446075 0.29340264     H
H40   0.27161127 0.17867689 0.33158615     H
C41   0.26018324 0.31219563 0.3973792     C
C42   0.38389552 0.2897197 0.478708     C
C43   0.51005507 0.17264296 0.456222     C
C44   0.4674613 0.14373755 0.40406534     C
C45   0.3829543 0.18770115 0.38906953     C
C46   0.3441921 0.26472834 0.4217649     C
C47   0.50618535 0.07128091 0.36646992     C
C48   0.46125966 0.039928976 0.318321     C
C49   0.37667394 0.08011636 0.3070987     C
C50   0.3379152 0.15236096 0.34183046     C
C51   0.34729108 0.36093116 0.5204805     C
C52   0.59936076 0.13183714 0.4720143     C
C53   0.3910776 0.37687436 0.5759858     C
C54   0.46800342 0.3226212 0.5933341     C
C55   0.5044208 0.25463495 0.5550089     C
C56   0.4665099 0.23945911 0.49615857     C
N57   0.26587552 0.4184853 0.5111307     N
N58   0.3559409 0.4476292 0.6170188     N
N59   0.5006241 0.9666023 0.2807364     N
O60   0.24374989 0.32622793 0.33913767     O
O61   0.62735754 0.050992034 0.4693127     O
O62   0.2027863 0.32636535 0.4335084     O
O63   0.645332 0.17822728 0.49366432     O
Cu64  0.15860163 0.52058065 0.37194362    Cu
Cu65  0.29214862 0.4533287 0.4579652    Cu
Cu66  0.59924734 0.9682161 0.43428573    Cu
Cu67  0.7508391 0.9096027 0.5055923    Cu
H68   0.12796688 0.2919607 0.49873686     H
H69   0.2951358 0.40975428 0.69723856     H
H70   0.41915786 0.5797383 0.66278017     H
H71   0.32509905 0.61599326 0.5690284     H
H72   0.2187983 0.5467971 0.53831124     H
H73   0.87105393 0.15329224 0.5383077     H
H74   0.024125341 0.08656353 0.55002916     H
H75   0.14403918 0.46043676 0.7546486     H
H76   0.1640291 0.55919546 0.7626659     H
H77   0.062539704 0.5571726 0.7705798     H
H78   0.12650594 0.5801163 0.6636104     H
H79   0.028618695 0.57454187 0.6678231     H
H80   0.11638199 0.17312452 0.57008123     H
H81   0.41311124 0.52274674 0.76878893     H
H82   0.47963366 0.44599473 0.72747606     H
H83   0.90152794 0.39472443 0.56425685     H
H84   0.8103905 0.3069345 0.5459735     H
C85   0.011714642 0.40706667 0.6773314     C
C86   0.23693359 0.36934283 0.50330365     C
C87   0.09526718 0.5380602 0.6770835     C
C88   0.118129745 0.5271805 0.74519396     C
C89   0.9976047 0.15378885 0.553345     C
C90   0.049657602 0.20296092 0.56453824     C
C91   0.015590783 0.2902665 0.569205     C
C92   0.9288534 0.32755476 0.5615344     C
C93   0.87708324 0.27809098 0.5507759     C
C94   0.9113506 0.19135639 0.5466662     C
C95   0.12603426 0.33518526 0.5387621     C
C96   0.18063624 0.38095108 0.5483057     C
C97   0.18054135 0.43716568 0.5997827     C
C98   0.11588164 0.45578006 0.6372721     C
C99   0.06651979 0.4019178 0.63133794     C
C100  0.07102113 0.3422653 0.5811515     C
C101  0.3018158 0.4544442 0.6691731     C
C102  0.36393306 0.49139616 0.68607515     C
C103  0.37176508 0.5503305 0.6499721     C
C104  0.3186851 0.57088715 0.5970138     C
C105  0.25783214 0.5326769 0.5799151     C
C106  0.24820146 0.47495863 0.616013     C
N107  0.41874927 0.4687253 0.73993456     N
O108  0.0011759227 0.34085852 0.6929107     O
O109  0.20945878 0.37217465 0.44687325     O
O110  0.9738573 0.47897884 0.7009306     O
O111  0.31289098 0.35845375 0.5213346     O
Cu112 0.973375 0.37697855 0.78908026    Cu
Cu113 0.090094246 0.21128032 0.7566485    Cu
C114  0.11998987 0.6184949 0.52516484     C
C115  0.0643785 0.8095459 0.4822836     C
C116  0.0621562 0.6578029 0.46970126     C
C117  0.012503982 0.7506616 0.48192185     C
C118  0.9715139 0.6451905 0.37266243     C
C119  0.8752817 0.7225904 0.4629717     C
C120  0.9272395 0.631753 0.47302118     C
C121  0.94531983 0.7406445 0.37574524     C
C122  0.0029523373 0.6104376 0.43687454     C
C123  0.927765 0.7723238 0.44148934     C
C124  0.8754466 0.8611037 0.44597346     C
C125  0.041494608 0.5191914 0.4253889     C
H126  0.09471834 0.57693005 0.54592216     H
H127  0.18206453 0.58016866 0.5108532     H
H128  0.13141763 0.6668261 0.55962497     H
H129  0.048367143 0.8435979 0.44039536     H
H130  0.05164063 0.8567757 0.5216843     H
H131  0.13208091 0.77533764 0.48823708     H
H132  0.10150349 0.65788347 0.4369271     H
H133  0.99690473 0.75495034 0.5268032     H
H134  0.017553568 0.61722875 0.33977085     H
H135  0.8447661 0.7533421 0.503772     H
H136  0.9950905 0.76120585 0.36226246     H
H137  0.94708055 0.62367994 0.5219474     H
H138  0.8897916 0.59020627 0.4569673     H
H139  0.88901746 0.7654119 0.34411114     H
H140  0.8269822 0.7206518 0.42523777     H
H141  0.9148029 0.6283314 0.35691833     H
O142  0.7997057 0.8762625 0.42145318     O
O143  0.99692714 0.48285148 0.38863224     O
O144  0.90196395 0.91029406 0.48571673     O
O145  0.12086773 0.4886005 0.43958384     O
H146  0.82385767 0.18721265 0.6317764     H
H147  0.98369765 0.046412922 0.60277617     H
H148  0.9238738 0.061874196 0.5061977     H
H149  0.8330072 0.08788822 0.46461058     H
H150  0.63675934 0.14001848 0.6036538     H
H151  0.72588265 0.115472674 0.6468319     H
C152  0.70107836 0.05546594 0.5100976     C
C153  0.9803048 0.15146999 0.6712284     C
C154  0.74017125 0.10234257 0.55669636     C
C155  0.82102793 0.0959715 0.55480427     C
C156  0.94383067 0.10370856 0.6240729     C
C157  0.86261415 0.13381416 0.60618186     C
N158  0.8648786 0.05548977 0.502313     N
N159  0.6956821 0.1461408 0.60799927     N
O160  0.74773574 0.9825783 0.4910249     O
O161  0.62203145 0.08495269 0.49199748     O
O162  0.05893314 0.122118026 0.6895701     O
O163  0.9332286 0.22449248 0.69054264     O
C164  0.321229 0.63593835 0.38819233     C
C165  0.44951442 0.6797188 0.4338219     C
C166  0.3806297 0.6563929 0.40802965     C
C167  0.5062762 0.704145 0.45417404     C
C168  0.25197476 0.6066937 0.37210682     C
C169  0.56830996 0.74296707 0.4722554     C
O170  0.63855225 0.7112873 0.45138785     O
O171  0.5432948 0.8178697 0.4927394     O
O172  0.2676098 0.52972364 0.3568507     O
O173  0.1829356 0.6505805 0.39069644     O
loop_
_geom_bond_atom_site_label_1
_geom_bond_atom_site_label_2
_geom_bond_distance
_geom_bond_site_symmetry_2
_ccdc_geom_bond_type
H0    C12    1.08335       .     D
H1    C17    1.08253       .     S
H2    C18    1.08358       .     S
H3    C13    1.08409       .     S
H4    C20    1.08319       .     A
H5    C19    1.08338       .     A
H6    N24    1.04568       .     S
H7    N24    1.04365       .     A
H8    N25    1.04552       .     A
H9    N25    1.04563       .     S
C10   C11    1.46800       .     A
C10   O28    1.27294       .     A
C10   O29    1.27316       .     S
C11   C10    1.46800       .     S
C11   C12    1.40427       .     S
C11   C16    1.41056   1_556     S
C12   H0     1.08335       .     S
C12   C11    1.40427       .     A
C12   C13    1.38188   1_556     A
C13   H3     1.08409       .     S
C13   C12    1.38188   1_554     A
C13   C14    1.39483       .     A
C14   C13    1.39483       .     S
C14   C15    1.41383       .     A
C14   C21    1.46074       .     A
C15   C14    1.41383       .     S
C15   C16    1.40692       .     S
C15   N24    1.43557       .     S
C16   C11    1.41056   1_554     S
C16   C15    1.40692       .     D
C16   N25    1.43411       .     S
C17   H1     1.08253       .     D
C17   C18    1.38848       .     S
C17   C21    1.39788       .     S
C18   H2     1.08358       .     S
C18   C17    1.38848       .     A
C18   C22    1.40512       .     A
C19   H5     1.08338       .     S
C19   C20    1.39118       .     A
C19   C22    1.40170       .     A
C20   H4     1.08319       .     S
C20   C19    1.39118       .     A
C20   C21    1.40121       .     A
C21   C14    1.46074       .     S
C21   C17    1.39788       .     S
C21   C20    1.40121       .     S
C22   C18    1.40512       .     S
C22   C19    1.40170       .     S
C22   C23    1.45899       .     A
C23   C22    1.45899       .     A
C23   O26    1.26827       .     S
C23   O27    1.27284       .     A
N24   H6     1.04568       .     A
N24   H7     1.04365       .     S
N24   C15    1.43557       .     A
N25   H8     1.04552       .     A
N25   H9     1.04563       .     S
N25   C16    1.43411       .     S
O26   C23    1.26827       .     S
O26   Cu65   3.02526       .     S
O27   C23    1.27284       .     D
O27   Cu64   2.47617       .     S
O28   C10    1.27294       .     D
O28   Cu112  2.97963   1_455     S
O29   C10    1.27316       .     S
O29   Cu113  3.95939       .     S
H30   C49    1.08344       .     S
H31   N57    1.03375       .     S
H32   N57    1.04440       .     S
H33   N58    1.04504       .     S
H34   N58    1.04554       .     A
H35   C54    1.08364       .     A
H36   C55    1.07811       .     A
H37   C47    1.07157       .     A
H38   N59    1.04567       .     S
H39   N59    1.04567       .     S
H40   C50    1.07864       .     A
C41   C46    1.46669       .     A
C41   O60    1.31916       .     A
C41   O62    1.28855       .     A
C42   C46    1.44920       .     A
C42   C51    1.45435       .     S
C42   C56    1.42163       .     A
C43   C44    1.42033       .     A
C43   C52    1.47051       .     A
C43   C56    1.41936       .     A
C44   C43    1.42033       .     A
C44   C45    1.40874       .     A
C44   C47    1.42359       .     S
C45   C44    1.40874       .     A
C45   C46    1.42189       .     S
C45   C50    1.42307       .     S
C46   C41    1.46669       .     S
C46   C42    1.44920       .     S
C46   C45    1.42189       .     S
C47   H37    1.07157       .     S
C47   C44    1.42359       .     D
C47   C48    1.40072       .     S
C48   C47    1.40072       .     D
C48   C49    1.38590       .     S
C48   N59    1.43586   1_545     S
C49   H30    1.08344       .     S
C49   C48    1.38590       .     S
C49   C50    1.38763       .     S
C50   H40    1.07864       .     S
C50   C45    1.42307       .     S
C50   C49    1.38763       .     A
C51   C42    1.45435       .     A
C51   C53    1.40899       .     A
C51   N57    1.42029       .     A
C52   C43    1.47051       .     S
C52   O61    1.29872       .     S
C52   O63    1.30874       .     A
C53   C51    1.40899       .     A
C53   C54    1.37330       .     A
C53   N58    1.43404       .     A
C54   H35    1.08364       .     A
C54   C53    1.37330       .     S
C54   C55    1.37424       .     A
C55   H36    1.07811       .     A
C55   C54    1.37424       .     A
C55   C56    1.42123       .     A
C56   C42    1.42163       .     A
C56   C43    1.41936       .     A
C56   C55    1.42123       .     S
N57   H31    1.03375       .     A
N57   H32    1.04440       .     S
N57   C51    1.42029       .     S
N58   H33    1.04504       .     S
N58   H34    1.04554       .     S
N58   C53    1.43404       .     S
N59   H38    1.04567       .     S
N59   H39    1.04567       .     D
N59   C48    1.43586   1_565     S
O60   C41    1.31916       .     S
O60   Cu65   3.42329       .     S
O61   C52    1.29872       .     S
O61   Cu66   1.71616   1_545     S
O62   C41    1.28855       .     S
O62   Cu112  9.06997   1_455     S
O63   C52    1.30874       .     S
O63   Cu66   3.97122   1_545     D
Cu64  O27    2.47617       .     S
Cu64  Cu65   2.80344       .     A
Cu64  O109   3.00885       .     A
Cu64  O172   1.99518       .     A
Cu64  O173   2.37350       .     S
Cu65  O26    3.02526       .     A
Cu65  O60    3.42329       .     S
Cu65  Cu64   2.80344       .     S
Cu65  O111   2.17397       .     S
Cu65  O145   2.77872       .     S
Cu66  O61    1.71616   1_565     A
Cu66  O63    3.97122   1_565     A
Cu66  Cu67   2.80344       .     S
Cu66  O161   2.36301   1_565     S
Cu66  O171   3.44413       .     S
Cu67  Cu66   2.80344       .     A
Cu67  O142   2.08327       .     A
Cu67  O144   2.68253       .     S
Cu67  O160   1.30374       .     A
Cu67  O170   4.40892       .     A
H68   C95    1.08560       .     A
H69   C101   1.07871       .     A
H70   C103   1.08304       .     A
H71   C104   1.08140       .     S
H72   C105   1.07105       .     A
H73   C94    1.08243       .     S
H74   C89    1.08237   1_455     A
H75   C88    1.11049       .     S
H76   C88    1.10871       .     A
H77   C88    1.10908       .     S
H78   C87    1.11026       .     S
H79   C87    1.10987       .     S
H80   C90    1.08324       .     S
H81   N107   1.04571       .     S
H82   N107   1.04540       .     A
H83   C92    1.08269       .     D
H84   C93    1.08021       .     S
C85   C99    1.44603       .     S
C85   O108   1.29088       .     S
C85   O110   1.27003   1_455     A
C86   C96    1.42543       .     S
C86   O109   1.28208       .     S
C86   O111   1.27065       .     S
C87   H78    1.11026       .     S
C87   H79    1.10987       .     S
C87   C88    1.52931       .     D
C87   C98    1.53220       .     S
C88   H75    1.11049       .     A
C88   H76    1.10871       .     A
C88   H77    1.10908       .     A
C88   C87    1.52931       .     S
C89   H74    1.08237   1_655     A
C89   C90    1.39852   1_655     S
C89   C94    1.39781       .     S
C90   H80    1.08324       .     S
C90   C89    1.39852   1_455     S
C90   C91    1.40523       .     A
C91   C90    1.40523       .     A
C91   C92    1.40537   1_455     S
C91   C100   1.48437       .     S
C92   H83    1.08269       .     S
C92   C91    1.40537   1_655     A
C92   C93    1.39825       .     A
C93   H84    1.08021       .     S
C93   C92    1.39825       .     A
C93   C94    1.39655       .     A
C94   H73    1.08243       .     A
C94   C89    1.39781       .     A
C94   C93    1.39655       .     A
C95   H68    1.08560       .     S
C95   C96    1.38859       .     A
C95   C100   1.37986       .     S
C96   C86    1.42543       .     A
C96   C95    1.38859       .     S
C96   C97    1.40690       .     A
C97   C96    1.40690       .     S
C97   C98    1.39768       .     S
C97   C106   1.49316       .     S
C98   C87    1.53220       .     S
C98   C97    1.39768       .     S
C98   C99    1.42761       .     A
C99   C85    1.44603       .     D
C99   C98    1.42761       .     S
C99   C100   1.41350       .     S
C100  C91    1.48437       .     S
C100  C95    1.37986       .     A
C100  C99    1.41350       .     S
C101  H69    1.07871       .     S
C101  C102   1.40143       .     S
C101  C106   1.40281       .     S
C102  C101   1.40143       .     D
C102  C103   1.40230       .     S
C102  N107   1.42960       .     S
C103  H70    1.08304       .     S
C103  C102   1.40230       .     S
C103  C104   1.39510       .     S
C104  H71    1.08140       .     S
C104  C103   1.39510       .     S
C104  C105   1.39767       .     S
C105  H72    1.07105       .     S
C105  C104   1.39767       .     S
C105  C106   1.39814       .     S
C106  C97    1.49316       .     S
C106  C101   1.40281       .     S
C106  C105   1.39814       .     S
N107  H81    1.04571       .     S
N107  H82    1.04540       .     S
N107  C102   1.42960       .     S
O108  C85    1.29088       .     S
O108  Cu113  2.67197       .     S
O109  Cu64   3.00885       .     S
O109  C86    1.28208       .     S
O110  C85    1.27003   1_655     S
O110  Cu112  2.76149       .     S
O111  Cu65   2.17397       .     S
O111  C86    1.27065       .     S
Cu112 O28    2.97963   1_655     S
Cu112 O62    9.06997   1_655     S
Cu112 O110   2.76149       .     S
Cu112 Cu113  2.94276   1_655     S
Cu112 O163   3.40154       .     S
Cu113 O29    3.95939       .     D
Cu113 O108   2.67197       .     S
Cu113 Cu112  2.94276   1_455     D
Cu113 O143   9.53839   1_455     S
Cu113 O162   2.15690       .     S
C114  C116   1.54506       .     S
C114  H126   1.10822       .     S
C114  H127   1.11099       .     S
C114  H128   1.11020       .     S
C115  C117   1.54530       .     S
C115  H129   1.10817       .     S
C115  H130   1.11103       .     S
C115  H131   1.11036       .     S
C116  C114   1.54506       .     S
C116  C117   1.54101       .     S
C116  C122   1.56274       .     S
C116  H132   1.05085       .     S
C117  C115   1.54530       .     S
C117  C116   1.54101       .     S
C117  C123   1.56335   1_455     S
C117  H133   1.05083   1_455     S
C118  C121   1.53536       .     S
C118  C122   1.56772   1_655     S
C118  H134   1.09376   1_655     S
C118  H141   1.10788       .     S
C119  C120   1.53538       .     S
C119  C123   1.56758       .     S
C119  H135   1.09380       .     S
C119  H140   1.10776       .     S
C120  C119   1.53538       .     S
C120  C122   1.52806   1_655     S
C120  H137   1.10617       .     S
C120  H138   1.10902       .     S
C121  C118   1.53536       .     D
C121  C123   1.52772       .     S
C121  H136   1.10627       .     S
C121  H139   1.10888       .     S
C122  C116   1.56274       .     S
C122  C118   1.56772   1_455     S
C122  C120   1.52806   1_455     D
C122  C125   1.48202       .     S
C123  C117   1.56335   1_655     D
C123  C119   1.56758       .     S
C123  C121   1.52772       .     S
C123  C124   1.48182       .     D
C124  C123   1.48182       .     S
C124  O142   1.29616       .     D
C124  O144   1.29513       .     S
C125  C122   1.48202       .     S
C125  O143   1.29608   1_455     S
C125  O145   1.29603       .     S
H126  C114   1.10822       .     S
H127  C114   1.11099       .     S
H128  C114   1.11020       .     S
H129  C115   1.10817       .     S
H130  C115   1.11103       .     S
H131  C115   1.11036       .     D
H132  C116   1.05085       .     S
H133  C117   1.05083   1_655     D
H134  C118   1.09377   1_455     S
H135  C119   1.09380       .     S
H136  C121   1.10627       .     D
H137  C120   1.10617       .     S
H138  C120   1.10902       .     D
H139  C121   1.10888       .     S
H140  C119   1.10776       .     S
H141  C118   1.10788       .     S
O142  Cu67   2.08327       .     S
O142  C124   1.29616       .     S
O143  Cu113  9.53839   1_655     D
O143  C125   1.29608   1_655     S
O144  Cu67   2.68253       .     S
O144  C124   1.29513       .     T
O145  Cu65   2.77872       .     S
O145  C125   1.29603       .     T
H146  C157   1.08146       .     D
H147  C156   1.08581       .     S
H148  N158   1.04383       .     S
H149  N158   1.04562       .     D
H150  N159   1.04031       .     S
H151  N159   1.04615       .     S
C152  C154   1.46867       .     T
C152  O160   1.29276   1_545     S
C152  O161   1.30616       .     T
C153  C156   1.46126       .     D
C153  O162   1.30096   1_655     S
C153  O163   1.29846       .     S
C154  C152   1.46867       .     S
C154  C155   1.35814       .     S
C154  N159   1.44242       .     S
C155  C154   1.35814       .     S
C155  C157   1.47107       .     S
C155  N158   1.44536       .     S
C156  H147   1.08581       .     S
C156  C153   1.46126       .     S
C156  C157   1.33837       .     S
C157  H146   1.08146       .     S
C157  C155   1.47107       .     S
C157  C156   1.33837       .     S
N158  H148   1.04383       .     S
N158  H149   1.04562       .     S
N158  C155   1.44536       .     S
N159  H150   1.04031       .     S
N159  H151   1.04615       .     S
N159  C154   1.44242       .     S
O160  Cu67   1.30374       .     S
O160  C152   1.29276   1_565     S
O161  Cu66   2.36301   1_545     S
O161  C152   1.30616       .     S
O162  Cu113  2.15690       .     S
O162  C153   1.30096   1_455     S
O163  Cu112  3.40154       .     S
O163  C153   1.29846       .     S
C164  C166   1.20056       .     S
C164  C168   1.42541       .     S
C165  C166   1.40424       .     S
C165  C167   1.20052       .     S
C166  C164   1.20056       .     S
C166  C165   1.40424       .     S
C167  C165   1.20052       .     S
C167  C169   1.42519       .     S
C168  C164   1.42541       .     S
C168  O172   1.26549       .     S
C168  O173   1.26205       .     S
C169  C167   1.42519       .     S
C169  O170   1.26637       .     S
C169  O171   1.25661       .     S
O170  Cu67   4.40892       .     S
O170  C169   1.26637       .     S
O171  Cu66   3.44413       .     S
O171  C169   1.25661       .     S
O172  Cu64   1.99518       .     S
O172  C168   1.26549       .     S
O173  Cu64   2.37350       .     S
O173  C168   1.26205       .     S
