# CIF file generated by MOFDiff
# Generation date: 2025-12-26 06:04:26
# Note: This is a computationally generated structure, not experimentally refined
# Space group: P1 (no symmetry operations beyond identity)
# Occupancy values: Set to 1.0 (fully occupied sites assumed)
# Displacement parameters: Estimated U_iso values (0.05 Å²)

data_I
_chemical_name_common  'Zinc-based MOF (computationally generated)'
_cell_length_a 11.50825
_cell_length_b 17.28413
_cell_length_c 17.60864
_cell_angle_alpha 91.31934
_cell_angle_beta  91.68358
_cell_angle_gamma 89.74011
_space_group_name_H-M_alt      'P 1'


loop_
_space_group_symop_operation_xyz
  'x, y, z' 

loop_
_atom_site_label
_atom_site_fract_x
_atom_site_fract_y
_atom_site_fract_z
_atom_site_type_symbol
C0    0.2125928 0.75112295 0.99543804     C
C1    0.04870258 0.6675343 0.048114184     C
C2    0.13599229 0.71196353 0.01768833     C
C3    0.96896017 0.63291776 0.072616145     C
C4    0.86384064 0.5985808 0.09398894     C
C5    0.3112679 0.79557014 0.97893727     C
O6    0.3395893 0.847539 0.023040652     O
O7    0.39088833 0.7653228 0.9450861     O
O8    0.80558455 0.63595974 0.14542414     O
O9    0.8239014 0.54440904 0.047701474     O
Zn10  0.70716393 0.67985135 0.99449337    Zn
Zn11  0.48046127 0.713991 0.07650915    Zn
C12   0.5519933 0.5525926 0.030330203     C
C13   0.6359145 0.8403956 0.046004403     C
C14    0.60936 0.16458525 0.08306115     C
C15   0.59840006 0.23191744 0.070723206     C
C16   0.73021144 0.048735917 0.080069505     C
C17   0.47263852 0.3441335 0.05164914     C
C18   0.678839 0.35242164 0.025354592     C
C19   0.5246733 0.03833031 0.10608011     C
C20   0.73849463 0.9681828 0.07148351     C
C21   0.458076 0.42179713 0.032873526     C
C22   0.66481906 0.43032396 0.0072107897     C
C23   0.531956 0.9575657 0.09917713     C
C24   0.6351546 0.92291284 0.071037516     C
C25   0.55770093 0.46759748 0.021785382     C
C26   0.6219252 0.08318505 0.09153704     C
C27   0.5840543 0.31111407 0.051720127     C
I28   0.91132927 0.9202692 0.07074649     I
I29   0.2850939 0.46178672 0.0057759425     I
I30   0.7983111 0.48442054 0.944061     I
I31   0.39220187 0.89218664 0.14475751     I
Br32  0.86677396 0.11295313 0.0765317    Br
Br33  0.3401781 0.28288183 0.077178165    Br
Br34  0.8275835 0.30248398 0.014002389    Br
Br35  0.3820144 0.08828553 0.13549104    Br
O36   0.6465501 0.592636 0.02798024     O
O37   0.5401833 0.80114496 0.044539105     O
O38   0.7322462 0.8081264 0.025940621     O
O39   0.45448714 0.5856545 0.046578724     O
loop_
_geom_bond_atom_site_label_1
_geom_bond_atom_site_label_2
_geom_bond_distance
_geom_bond_site_symmetry_2
_geom_bond_type
C0  C5  1.41482  .  single
C1  C2  1.39407  .  single
C2  C1  1.39407  .  triple
C3  C4  1.41453  .  double
C4  C3  1.41453  .  single
C4  O8  1.30076  .  double
C4  O9  1.30346  .  single
C5  C0  1.41482  .  single
C5  O7  1.21721  .  single
O7  C5  1.21721  .  double
O8  C4  1.30076  .  single
O9  C4  1.30346  .  double
Zn11  O37  1.76908  .  single
Zn11  O39  2.28700  .  aromatic
C12  C25  1.47466  .  single
C12  O36  1.29448  .  single
C12  O39  1.29348  .  triple
C13  C24  1.48314  .  single
C13  O37  1.29574  .  single
C13  O38  1.29354  .  single
C14  C15  1.19423  .  aromatic
C14  C26  1.42450  .  aromatic
C15  C14  1.19423  .  aromatic
C15  C27  1.42435  .  aromatic
C16  C26  1.39671  .  single
C16  Br32  1.93146  .  aromatic
C17  C21  1.39801  .  single
C17  C27  1.40109  .  single
C17  Br33  1.92963  .  double
C18  C22  1.39854  .  single
C18  C27  1.40258  .  double
C18  Br34  1.92716  .  single
C19  C26  1.39753  .  single
C19  Br35  1.93018  .  single
C20  C24  1.42627  .  aromatic
C20  I28  2.15135  .  aromatic
C21  C17  1.39801  .  aromatic
C21  C25  1.41696  .  aromatic
C21  I29  2.14832  .  single
C22  C18  1.39854  .  aromatic
C22  C25  1.41575  .  single
C23  C24  1.42450  .  single
C23  I31  2.15452  .  single
C24  C13  1.48314  .  single
C24  C20  1.42627  .  aromatic
C24  C23  1.42450  .  aromatic
C25  C12  1.47466  .  aromatic
C25  C21  1.41696  .  aromatic
C25  C22  1.41575  .  aromatic
C26  C14  1.42450  .  single
C26  C16  1.39671  .  aromatic
C26  C19  1.39753  .  single
C27  C15  1.42435  .  single
C27  C17  1.40109  .  double
C27  C18  1.40258  .  single
I28  C20  2.15135  .  single
I29  C21  2.14832  .  single
I31  C23  2.15452  .  single
Br32  C16  1.93146  .  single
Br33  C17  1.92963  .  single
Br34  C18  1.92716  .  single
Br35  C19  1.93018  .  single
O36  C12  1.29448  .  single
O37  Zn11  1.76908  .  single
O37  C13  1.29574  .  single
O38  C13  1.29354  .  single
O39  Zn11  2.28700  .  single
O39  C12  1.29348  .  single
