data_I
_chemical_name_common  '/home/sibivarshan_m7/MOFDiff/MOFDiff/nh3_all_samples/cif/sample_2'
_cell_length_a 14.65783
_cell_length_b 15.32952
_cell_length_c 15.27695
_cell_angle_alpha 71.26465
_cell_angle_beta  78.62247
_cell_angle_gamma 85.65123
_space_group_name_H-M_alt      'P 1'


loop_
_space_group_symop_operation_xyz
  'x, y, z' 

loop_
_atom_site_label
_atom_site_fract_x
_atom_site_fract_y
_atom_site_fract_z
_atom_site_type_symbol
H0    0.62262756 0.87621367 0.17038171     H
H1    0.56813455 0.5039463 0.19950022     H
H2    0.6035809 0.5428317 0.082199365     H
H3    0.9683566 0.47524726 0.19116516     H
H4    0.90088683 0.46681553 0.30069107     H
H5    0.99682826 0.77596796 0.21075629     H
H6    0.6892966 0.8870885 0.060306694     H
C7    0.8555617 0.774935 0.18977724     C
C8    0.94358236 0.73590404 0.20193803     C
C9    0.8941588 0.59203255 0.20231149     C
C10   0.8059606 0.6298296 0.18132664     C
C11   0.7856888 0.72274065 0.1759669     C
C12   0.6970152 0.76032436 0.15612894     C
C13   0.6483183 0.61668587 0.15365401     C
C14   0.7369144 0.57756376 0.16674964     C
C15   0.8393166 0.86640257 0.19795983     C
C16   0.75471884 0.48503494 0.1607413     C
N17   0.62862617 0.70576304 0.15036675     N
N18   0.768267 0.41121915 0.15579754     N
N19   0.9068873 0.4942782 0.22788838     N
N20   0.962486 0.6467636 0.20730698     N
N21   0.68393517 0.857981 0.13284351     N
N22   0.5784154 0.5634507 0.14140278     N
N23   0.8261368 0.9394451 0.2050535     N
H24   0.1648425 0.26627314 0.12687247     H
H25   0.44819096 0.34110007 0.19269153     H
H26   0.60249925 0.09014791 0.26476103     H
H27   0.15841915 0.09906197 0.18484154     H
H28   0.57520664 0.30423793 0.30624536     H
H29   0.66261566 0.22398035 0.27694532     H
H30   0.63356876 0.32459277 0.18581985     H
C31   0.307176 0.37018663 0.111450285     C
C32   0.45202938 0.26757082 0.20408103     C
C33   0.5296527 0.2197215 0.23596571     C
C34   0.538355 0.12581605 0.24765475     C
C35   0.4684455 0.07851835 0.23144749     C
C36   0.38261086 0.12421688 0.211055     C
C37   0.3793664 0.2214814 0.18938966     C
C38   0.3029543 0.27149978 0.15370063     C
C39   0.22412895 0.22717625 0.15277067     C
C40   0.22136748 0.13226771 0.18428396     C
C41   0.2992016 0.0800173 0.21221323     C
C42   0.2853547 0.98100704 0.24865411     C
C43   0.60486674 0.27075902 0.25221273     C
C44   0.49940583 0.99280506 0.21524112     C
N45   0.5287393 0.92599005 0.1998024     N
O46   0.37139115 0.40345457 0.038183454     O
O47   0.25169906 0.42053965 0.15309045     O
O48   0.33537433 0.93101037 0.20266297     O
O49   0.21568225 0.9480953 0.31756997     O
Zn50  0.23370995 0.6416986 0.27511644    Zn
Zn51  0.3537785 0.7136555 0.07779287    Zn
H52   0.04984042 0.71150637 0.67490155     H
H53   0.53948283 0.6440601 0.6787756     H
H54   0.2854527 0.7399539 0.44099662     H
H55   0.30377123 0.6149653 0.9127692     H
H56   0.98882735 0.63170236 0.83907723     H
H57   0.60046077 0.7233405 0.514501     H
H58   0.17661214 0.74996614 0.54665047     H
H59   0.41274393 0.60556746 0.8070424     H
C60   0.17637655 0.5681014 0.06687093     C
C61   0.41278866 0.78696877 0.28682292     C
C62   0.1599396 0.5873456 0.96925265     C
C63   0.42925107 0.76770794 0.38442943     C
C64   0.05850257 0.62625283 0.85417664     C
C65   0.53076303 0.7288446 0.49945137     C
C66   0.07142662 0.5845988 0.9463477     C
C67   0.51780254 0.7704759 0.40728793     C
C68   0.23636858 0.6145008 0.89507365     C
C69   0.3528688 0.7405425 0.45863947     C
C70   0.22580777 0.6422876 0.80021924     C
C71   0.3634579 0.71288294 0.55347914     C
C72   0.13444482 0.6554456 0.78121924     C
C73   0.45483518 0.69977945 0.57244986     C
C74   0.30281135  0.65952 0.7239683     C
C75   0.28648615 0.6957516 0.62973773     C
C76   0.19406664 0.71653146 0.615018     C
C77   0.39525098 0.6388619 0.7386793     C
C78   0.11963026 0.69556326 0.68946326     C
C79   0.46967837 0.65984386 0.66421765     C
I80   0.63292164 0.8482771 0.31830218     I
I81   0.956266 0.5068302 0.035284996     I
O82   0.10846253 0.53728205 0.13881671     O
O83   0.48068753 0.8178033 0.21488313     O
O84   0.25877723 0.58752376 0.07730532     O
O85   0.33037278 0.7675616 0.27639455     O
loop_
_geom_bond_atom_site_label_1
_geom_bond_atom_site_label_2
_geom_bond_distance
_geom_bond_site_symmetry_2
_ccdc_geom_bond_type
H0    N21    1.03734       .     S
H1    N22    1.04428       .     T
H2    N22    1.04323       .     S
H3    N19    1.03803       .     S
H4    N19    1.04317       .     S
H5    C8     1.08250       .     A
H6    N21    1.04239       .     A
C7    C8     1.40114       .     S
C7    C11    1.43235       .     A
C7    C15    1.44519       .     A
C8    H5     1.08250       .     A
C8    C7     1.40114       .     A
C8    N20    1.35289       .     A
C9    C10    1.42843       .     A
C9    N19    1.42944       .     A
C9    N20    1.38258       .     A
C10   C9     1.42843       .     A
C10   C11    1.41212       .     S
C10   C14    1.42910       .     S
C11   C7     1.43235       .     S
C11   C10    1.41212       .     S
C11   C12    1.42928       .     S
C12   C11    1.42928       .     T
C12   N17    1.38617       .     S
C12   N21    1.43027       .     S
C13   C14    1.41189       .     S
C13   N17    1.36101       .     T
C13   N22    1.43229       .     S
C14   C10    1.42910       .     S
C14   C13    1.41189       .     S
C14   C16    1.45138       .     A
C15   C7     1.44519       .     A
C15   N23    1.15745       .     S
C16   C14    1.45138       .     A
C16   N18    1.15779       .     A
N17   C12    1.38617       .     A
N17   C13    1.36101       .     A
N17   Zn51   4.36764       .     A
N18   C16    1.15779       .     A
N19   H3     1.03803       .     A
N19   H4     1.04317       .     A
N19   C9     1.42944       .     A
N20   C8     1.35289       .     S
N20   C9     1.38258       .     S
N20   Zn50   4.29076   1_655     S
N21   H0     1.03734       .     S
N21   H6     1.04239       .     S
N21   C12    1.43027       .     T
N22   H1     1.04428       .     S
N22   H2     1.04323       .     S
N22   C13    1.43229       .     S
N23   C15    1.15745       .     S
H24   C39    1.08409       .     A
H25   C32    1.08268       .     A
H26   C34    1.08556       .     A
H27   C40    1.08438       .     D
H28   C43    1.10927       .     S
H29   C43    1.11067       .     S
H30   C43    1.11058       .     A
C31   C38    1.44230       .     D
C31   O46    1.29973       .     S
C31   O47    1.29533       .     S
C32   H25    1.08268       .     A
C32   C33    1.39012       .     A
C32   C37    1.41218       .     A
C33   C32    1.39012       .     A
C33   C34    1.39155       .     T
C33   C43    1.50090       .     S
C34   H26    1.08556       .     A
C34   C33    1.39155       .     S
C34   C35    1.40184       .     A
C35   C34    1.40184       .     A
C35   C36    1.43232       .     S
C35   C44    1.43802   1_545     S
C36   C35    1.43232       .     S
C36   C37    1.41894       .     S
C36   C41    1.43650       .     S
C37   C32    1.41218       .     S
C37   C36    1.41894       .     S
C37   C38    1.40777       .     A
C38   C31    1.44230       .     A
C38   C37    1.40777       .     A
C38   C39    1.38873       .     D
C39   H24    1.08409       .     S
C39   C38    1.38873       .     S
C39   C40    1.37893       .     A
C40   H27    1.08438       .     D
C40   C39    1.37893       .     S
C40   C41    1.39970       .     S
C41   C36    1.43650       .     A
C41   C40    1.39970       .     A
C41   C42    1.45400   1_545     A
C42   C41    1.45400   1_565     A
C42   O48    1.29463       .     T
C42   O49    1.31096       .     S
C43   H28    1.10927       .     A
C43   H29    1.11067       .     S
C43   H30    1.11058       .     A
C43   C33    1.50090       .     A
C44   C35    1.43802   1_565     S
C44   N45    1.15670       .     S
N45   C44    1.15670       .     S
O46   C31    1.29973       .     S
O46   Zn51   4.96444       .     S
O47   C31    1.29533       .     S
O47   Zn50   4.33233       .     S
O48   C42    1.29463       .     D
O48   Zn51   4.30784       .     S
O49   C42    1.31096       .     S
O49   Zn50   4.92468       .     S
Zn50  N20    4.29076   1_455     S
Zn50  O47    4.33233       .     S
Zn50  O49    4.92468       .     S
Zn50  Zn51   3.07677       .     A
Zn50  O82    3.78988       .     A
Zn50  O84    3.32937       .     A
Zn51  N17    4.36764       .     A
Zn51  O46    4.96444       .     A
Zn51  O48    4.30784       .     A
Zn51  Zn50   3.07677       .     A
Zn51  O83    3.81195       .     A
Zn51  O85    3.34108       .     S
H52   C78    1.08288       .     A
H53   C79    1.08285       .     A
H54   C69    1.07574       .     A
H55   C68    1.07560       .     A
H56   C64    1.08206   1_655     A
H57   C65    1.08204       .     S
H58   C76    1.07735       .     A
H59   C77    1.07720       .     A
C60   C62    1.48911   1_554     A
C60   O82    1.31464       .     A
C60   O84    1.31676       .     A
C61   C63    1.48903       .     A
C61   O83    1.31448       .     S
C61   O85    1.31686       .     A
C62   C60    1.48911   1_556     S
C62   C66    1.41575       .     S
C62   C68    1.40688       .     A
C63   C61    1.48903       .     S
C63   C67    1.41604       .     S
C63   C69    1.40671       .     D
C64   H56    1.08206   1_455     S
C64   C66    1.39128       .     D
C64   C72    1.39544       .     S
C65   H57    1.08204       .     S
C65   C67    1.39129       .     S
C65   C73    1.39540       .     S
C66   C62    1.41575       .     S
C66   C64    1.39128       .     S
C66   I81    2.11575   1_456     A
C67   C63    1.41604       .     A
C67   C65    1.39129       .     A
C67   I80    2.11575       .     A
C68   H55    1.07560       .     A
C68   C62    1.40688       .     A
C68   C70    1.40970       .     A
C69   H54    1.07574       .     A
C69   C63    1.40671       .     S
C69   C71    1.40967       .     A
C70   C68    1.40970       .     A
C70   C72    1.41178       .     A
C70   C74    1.42460       .     A
C71   C69    1.40967       .     A
C71   C73    1.41183       .     S
C71   C75    1.42440       .     A
C72   C64    1.39544       .     A
C72   C70    1.41178       .     A
C72   C78    1.39152       .     A
C73   C65    1.39540       .     A
C73   C71    1.41183       .     A
C73   C79    1.39152       .     S
C74   C70    1.42460       .     A
C74   C75    1.42835       .     S
C74   C77    1.41282       .     S
C75   C71    1.42440       .     A
C75   C74    1.42835       .     S
C75   C76    1.41276       .     S
C76   H58    1.07735       .     D
C76   C75    1.41276       .     S
C76   C78    1.38419       .     S
C77   H59    1.07720       .     S
C77   C74    1.41282       .     S
C77   C79    1.38426       .     S
C78   H52    1.08288       .     S
C78   C72    1.39152       .     S
C78   C76    1.38419       .     S
C79   H53    1.08285       .     S
C79   C73    1.39152       .     S
C79   C77    1.38426       .     S
I80   C67    2.11575       .     S
I81   C66    2.11575   1_654     S
O82   Zn50   3.78988       .     S
O82   C60    1.31464       .     S
O83   Zn51   3.81195       .     S
O83   C61    1.31448       .     S
O84   Zn50   3.32937       .     S
O84   C60    1.31676       .     S
O85   Zn51   3.34108       .     S
O85   C61    1.31686       .     S
