data_I
_chemical_name_common  '/home/sibivarshan_m7/MOFDiff/MOFDiff/nh3_all_samples/cif/sample_4'
_cell_length_a  7.80919
_cell_length_b 12.37594
_cell_length_c 14.55532
_cell_angle_alpha 87.11637
_cell_angle_beta  90.41024
_cell_angle_gamma 87.72607
_space_group_name_H-M_alt      'P 1'


loop_
_space_group_symop_operation_xyz
  'x, y, z' 

loop_
_atom_site_label
_atom_site_fract_x
_atom_site_fract_y
_atom_site_fract_z
_atom_site_type_symbol
C0    0.3977912 0.020453133 0.18595886     C
C1    0.38814527 0.005834358 0.5297728     C
C2    0.39609545 0.017690549 0.08454156     C
C3    0.39456713 0.015641987 0.9999704     C
C4    0.39233503 0.013424188 0.90016073     C
C5    0.3904742 0.011645712 0.8157111     C
C6    0.38873133 0.00963108 0.7158712     C
C7    0.38793528 0.007946796 0.6312409     C
O8    0.40024915 0.9372905 0.2384913     O
O9    0.39682493 0.10617454 0.2278347     O
O10   0.24428634 0.007505023 0.48369431     O
O11   0.53248006 0.0020895146 0.48559558     O
H12   0.94495696 0.93711334 0.6026951     H
H13   0.07154763 0.8783975 0.5139579     H
H14   0.84297526 0.86166644 0.51700586     H
H15   0.9393966 0.16398752 0.19903533     H
H16   0.7108574 0.14430314 0.20390722     H
H17   0.83845496 0.08552847 0.11568216     H
C18   0.94590837 0.9178559 0.52906966     C
C19   0.8377428 0.106216885 0.18897173     C
N20   0.9521236 0.99126416 0.38827446     N
N21   0.8347579 0.033954196 0.33076814     N
O22   0.9131578 0.013262248 0.47521865     O
O23   0.8741729 0.01187579 0.24381895     O
Zn24  0.586708 0.028214527 0.36001408    Zn
Zn25  0.20114776 0.005132335 0.3594325    Zn
H26   0.14955343 0.2983165 0.29849315     H
H27   0.9330678 0.70770633 0.47955924     H
H28   0.1403759 0.7599727 0.49471983     H
H29   0.06958412 0.51464206 0.51142097     H
H30   0.26081052 0.5795749 0.54454905     H
H31   0.096300334 0.6791151 0.66306996     H
H32   0.08814934 0.534011 0.6805723     H
H33   0.90519345 0.6105123 0.6317038     H
H34   0.8341492 0.596446 0.45385945     H
H35   0.99368066 0.44606975 0.24662924     H
H36   0.671313 0.7372251 0.39577386     H
H37   0.71665794 0.24988268 0.5673198     H
H38   0.49090505 0.2664167 0.54847383     H
H39   0.73771644 0.44147694 0.6074759     H
H40   0.51077276 0.46446195 0.58733714     H
H41   0.45019743 0.32428876 0.7121567     H
H42   0.5732062 0.43253344 0.7534927     H
H43   0.67841583 0.30365488 0.7332563     H
C44   0.23665151 0.35361105 0.32785887     C
C45   0.27267075 0.64202803 0.36390167     C
C46   0.50741005 0.38458169 0.40621558     C
C47   0.31753403 0.5340823 0.35584188     C
C48   0.480255 0.49555266 0.38919592     C
C49   0.61370665 0.309315 0.54391974     C
C50   0.61168945 0.40279222 0.60936123     C
C51   0.57609135 0.36296996 0.7081283     C
C52   0.0721716 0.68841624 0.47246101     C
C53   0.11927998 0.5897191 0.53830105     C
C54   0.047479652 0.60463107 0.634321     C
C55   0.36374772 0.82988006 0.34979442     C
C56   0.4287604 0.20072137 0.37270686     C
C57   0.3879843 0.3144772 0.37117377     C
C58   0.4037231 0.7160676 0.36723697     C
C59   0.60797876 0.5695021 0.4072186     C
C60   0.19929014 0.46417516 0.32025272     C
C61   0.5713041 0.67983115 0.38886425     C
O62   0.10150898 0.670804 0.37770304     O
O63   0.7678559 0.5332196 0.43880484     O
O64   0.05688139 0.50617063 0.27170873     O
O65   0.20403484 0.85971373 0.34394363     O
O66   0.5885137 0.17101802 0.37181947     O
O67   0.48653746 0.8971653 0.34087798     O
O68   0.30601108 0.13356647 0.37488502     O
O69   0.6542824 0.34491128 0.45285827     O
loop_
_geom_bond_atom_site_label_1
_geom_bond_atom_site_label_2
_geom_bond_distance
_geom_bond_site_symmetry_2
_ccdc_geom_bond_type
C0    C2     1.47825       .     D
C0    O8     1.25034   1_545     D
C0    O9     1.24961       .     S
C1    C7     1.47846       .     S
C1    O10    1.30319       .     T
C1    O11    1.30203       .     S
C2    C0     1.47825       .     T
C2    C3     1.23248   1_554     S
C3    C2     1.23248   1_556     S
C3    C4     1.45439       .     S
C4    C3     1.45439       .     T
C4    C5     1.23049       .     D
C5    C4     1.23049       .     D
C5    C6     1.45464       .     S
C6    C5     1.45464       .     S
C6    C7     1.23302       .     T
C7    C1     1.47846       .     S
C7    C6     1.23302       .     T
O8    C0     1.25034   1_565     S
O8    Zn25   2.51108   1_565     S
O9    C0     1.24961       .     S
O9    Zn24   2.54754       .     T
O10   C1     1.30319       .     S
O10   Zn25   1.83931       .     S
O11   C1     1.30203       .     S
O11   Zn24   1.89407       .     S
H12   C18    1.10948       .     S
H13   C18    1.10696   1_455     S
H14   C18    1.10235       .     S
H15   C19    1.10305       .     S
H16   C19    1.10797       .     S
H17   C19    1.10951       .     S
C18   H12    1.10948       .     S
C18   H13    1.10696   1_655     S
C18   H14    1.10235       .     S
C18   O22    1.39785   1_565     S
C19   H15    1.10305       .     S
C19   H16    1.10797       .     S
C19   H17    1.10951       .     S
C19   O23    1.39930       .     S
N20   N21    1.31372   1_565     S
N20   O22    1.34231   1_565     S
N20   Zn25   2.00459   1_665     S
N21   N20    1.31372   1_545     S
N21   O23    1.34342       .     S
N21   Zn24   1.98952       .     S
O22   C18    1.39785   1_545     D
O22   N20    1.34231   1_545     S
O23   C19    1.39930       .     S
O23   N21    1.34342       .     S
Zn24  O9     2.54754       .     S
Zn24  O11    1.89407       .     S
Zn24  N21    1.98952       .     A
Zn24  Zn25   3.03569       .     A
Zn24  O66    1.78484       .     S
Zn24  O67    1.86089   1_545     S
Zn25  O8     2.51108   1_545     S
Zn25  O10    1.83931       .     S
Zn25  N20    2.00459   1_445     A
Zn25  Zn24   3.03569       .     A
Zn25  O65    1.82425   1_545     S
Zn25  O68    1.83964       .     S
H26   C44    1.08435       .     S
H27   C52    1.10959   1_655     S
H28   C52    1.11208       .     S
H29   C53    1.10906       .     S
H30   C53    1.10995       .     S
H31   C54    1.11113       .     A
H32   C54    1.11069       .     A
H33   C54    1.11089   1_655     A
H34   O63    0.98797       .     S
H35   O64    0.99195   1_655     S
H36   C61    1.08382       .     A
H37   C49    1.10784       .     A
H38   C49    1.11520       .     S
H39   C50    1.11131       .     S
H40   C50    1.10922       .     S
H41   C51    1.11108       .     S
H42   C51    1.11065       .     S
H43   C51    1.11059       .     S
C44   H26    1.08435       .     A
C44   C57    1.39350       .     A
C44   C60    1.38648       .     S
C45   C47    1.37856       .     S
C45   C58    1.40269       .     S
C45   O62    1.38818       .     S
C46   C48    1.39082       .     S
C46   C57    1.40875       .     S
C46   O69    1.38855       .     S
C47   C45    1.37856       .     D
C47   C48    1.41336       .     S
C47   C60    1.40397       .     D
C48   C46    1.39082       .     S
C48   C47    1.41336       .     S
C48   C59    1.41212       .     S
C49   H37    1.10784       .     S
C49   H38    1.11520       .     S
C49   C50    1.53477       .     A
C49   O69    1.41760       .     A
C50   H39    1.11131       .     S
C50   H40    1.10922       .     S
C50   C49    1.53477       .     S
C50   C51    1.52713       .     S
C51   H41    1.11108       .     A
C51   H42    1.11065       .     A
C51   H43    1.11059       .     S
C51   C50    1.52713       .     S
C52   H27    1.10959   1_455     S
C52   H28    1.11208       .     S
C52   C53    1.54506       .     S
C52   O62    1.42586       .     S
C53   H29    1.10906       .     S
C53   H30    1.10995       .     A
C53   C52    1.54506       .     A
C53   C54    1.52666       .     A
C54   H31    1.11113       .     S
C54   H32    1.11069       .     S
C54   H33    1.11089   1_455     A
C54   C53    1.52666       .     A
C55   C58    1.44010       .     S
C55   O65    1.28760       .     S
C55   O67    1.29769       .     S
C56   C57    1.43006       .     S
C56   O66    1.28685       .     S
C56   O68    1.29291       .     S
C57   C44    1.39350       .     A
C57   C46    1.40875       .     A
C57   C56    1.43006       .     S
C58   C45    1.40269       .     S
C58   C55    1.44010       .     S
C58   C61    1.39505       .     S
C59   C48    1.41212       .     S
C59   C61    1.39605       .     S
C59   O63    1.37779       .     S
C60   C44    1.38648       .     D
C60   C47    1.40397       .     S
C60   O64    1.38277       .     S
C61   H36    1.08382       .     S
C61   C58    1.39505       .     S
C61   C59    1.39605       .     S
O62   C45    1.38818       .     S
O62   C52    1.42586       .     S
O63   H34    0.98797       .     S
O63   C59    1.37779       .     S
O64   H35    0.99195   1_455     S
O64   C60    1.38277       .     S
O65   Zn25   1.82425   1_565     S
O65   C55    1.28760       .     S
O66   Zn24   1.78484       .     S
O66   C56    1.28685       .     S
O67   Zn24   1.86089   1_565     S
O67   C55    1.29769       .     S
O68   Zn25   1.83964       .     S
O68   C56    1.29291       .     S
O69   C46    1.38855       .     S
O69   C49    1.41760       .     S
