data_I
_chemical_name_common  'nh3_target_5.00/cif/sample_0'
_cell_length_a  7.68164
_cell_length_b  9.09222
_cell_length_c 18.29678
_cell_angle_alpha 92.67198
_cell_angle_beta  90.50841
_cell_angle_gamma 94.63037
_space_group_name_H-M_alt      'P 1'


loop_
_space_group_symop_operation_xyz
  'x, y, z' 

loop_
_atom_site_label
_atom_site_fract_x
_atom_site_fract_y
_atom_site_fract_z
_atom_site_type_symbol
Cu0   0.7075545 0.9019476 0.63494706    Cu
Cu1   0.36384702 0.85487914 0.64774567    Cu
H2    0.88604313 0.28577042 0.9266261     H
H3    0.25151205 0.71601176 0.3684481     H
H4    0.9875389 0.77895844 0.008256786     H
H5    0.07395077 0.9797117 0.26847968     H
H6    0.5974556 0.19582582 0.08772832     H
H7    0.45819628 0.5656899 0.19343136     H
H8    0.59422654 0.32665193 0.30608687     H
H9    0.46015254 0.43756926 0.97683966     H
H10   0.7385218 0.65867525 0.0052086925     H
H11   0.32095367 0.10481632 0.27342147     H
H12   0.17102826 0.47430468 0.352854     H
H13   0.8087245 0.04403913 0.9091762     H
C14   0.7477723 0.70531195 0.2258933     C
C15   0.3782728 0.19521928 0.030994587     C
C16   0.67783606 0.56652707 0.24984263     C
C17   0.8555383 0.027458668 0.9639677     C
C18   0.20374632 0.7311581 0.31363204     C
C19   0.07171241 0.8445453 0.047416367     C
C20   0.98788035 0.9140415 0.23005827     C
C21   0.7573093 0.6826793 0.06347192     C
C22   0.29744628 0.075510025 0.21585265     C
C23   0.7795582 0.48541602 0.29554173     C
C24   0.106004685 0.2236849 0.9651642     C
C25   0.9510718 0.53730017 0.31477022     C
C26   0.64561963 0.7871274 0.1036656     C
C27   0.4109662 0.9725732 0.17579277     C
C28   0.55382574 0.87658787 0.9842956     C
O29   0.75573206 0.9659212 0.0065871202     O
C30   0.5393818 0.8754248 0.06366393     C
C31   0.5181984 0.88526964 0.21584246     C
C32   0.41983402 0.9648359 0.098729454     C
C33   0.63730747 0.7954366 0.18077722     C
C34   0.50393635 0.8846564 0.2952108     C
C35   0.035857357 0.08359647 0.98716766     C
C36   0.022307754 0.6761417 0.29155532     C
C37   0.13905345 0.9978038 0.030622715     C
C38   0.27652532 0.27669966 0.98547065     C
C39   0.91917735 0.76177293 0.24797934     C
C40   0.30936712 0.055208445 0.053773403     C
O41   0.3605658 0.8408078 0.32428882     O
O42   0.42243248 0.83247095 0.94465834     O
O43   0.6353577 0.9288186 0.3348497     O
O44   0.012399319 0.31498635 0.92411155     O
O45   0.04453981 0.446214 0.3559992     O
O46   0.30326498 0.7900829 0.2700616     O
O47   0.10602505 0.7906487 0.105143435     O
O48   0.6972243 0.9204818 0.95521915     O
O49   0.9526688 0.96691203 0.17217202     O
O50   0.54389644 0.2558601 0.05135376     O
O51   0.51124233 0.5067876 0.23043786     O
O52   0.71740746 0.35074314 0.32147798     O
O53   0.33762208 0.41263604 0.96069765     O
O54   0.8713327 0.62147635 0.0940365     O
O55   0.1760798 0.12859333 0.18600915     O
C56   0.5118802 0.60003805 0.6446835     C
C57   0.5622212 0.16324349 0.63579667     C
C58   0.52886266 0.4463532 0.6415514     C
C59   0.54526913 0.31693253 0.63892895     C
O60   0.36011603 0.64834493 0.64461535     O
O61   0.7139854 0.11493655 0.6358648     O
O62   0.42430338 0.07546823 0.6329466     O
O63   0.64979804 0.6878133 0.64753354     O
N64   0.9573681 0.88367486 0.6397072     N
N65   0.11182791 0.8779774 0.63991416     N
loop_
_geom_bond_atom_site_label_1
_geom_bond_atom_site_label_2
_geom_bond_distance
_geom_bond_site_symmetry_2
_ccdc_geom_bond_type
Cu0   Cu1    2.65457       .     S
Cu0   O43    5.53256       .     S
Cu0   O48    5.85594       .     S
Cu0   O61    1.93247   1_565     S
Cu0   O63    1.98612       .     S
Cu0   N64    1.94101       .     S
Cu1   Cu0    2.65457       .     S
Cu1   O41    5.91342       .     A
Cu1   O42    5.46179       .     A
Cu1   O60    1.87395       .     D
Cu1   O62    2.05282   1_565     A
Cu1   N65    1.96874       .     S
H2    O44    0.98747   1_655     S
H3    C18    1.08352       .     D
H4    C19    1.08478   1_655     S
H5    C20    1.08477   1_455     A
H6    O50    0.98764       .     S
H7    O51    0.98766       .     D
H8    O52    0.98929       .     S
H9    O53    0.98940       .     S
H10   C21    1.08415       .     S
H11   C22    1.08434       .     D
H12   O45    0.98738       .     D
H13   C17    1.08329       .     S
C14   C16    1.42099       .     A
C14   C33    1.49527       .     A
C14   C39    1.42216       .     A
C15   C38    1.41173   1_554     A
C15   C40    1.42092       .     A
C15   O50    1.38585       .     A
C16   C14    1.42099       .     A
C16   C23    1.41157       .     S
C16   O51    1.38581       .     S
C17   H13    1.08329       .     A
C17   O29    1.22105   1_546     S
C17   C35    1.48814   1_655     S
C18   H3     1.08352       .     S
C18   C36    1.48813       .     A
C18   O46    1.22126       .     A
C19   H4     1.08478   1_455     S
C19   C37    1.49335       .     A
C19   O47    1.22040       .     S
C20   H5     1.08477   1_655     S
C20   C39    1.49338       .     A
C20   O49    1.22040       .     D
C21   H10    1.08415       .     S
C21   C26    1.50214       .     S
C21   O54    1.22008       .     D
C22   H11    1.08434       .     S
C22   C27    1.50092   1_545     S
C22   O55    1.22003       .     A
C23   C16    1.41157       .     D
C23   C25    1.39932       .     S
C23   O52    1.38430       .     A
C24   C35    1.41973       .     S
C24   C38    1.39961       .     S
C24   O44    1.38393       .     S
C25   C23    1.39932       .     S
C25   C36    1.41987   1_655     S
C25   O45    1.38386   1_655     S
C26   C21    1.50214       .     S
C26   C30    1.41285       .     S
C26   C33    1.41168       .     S
C27   C22    1.50092   1_565     A
C27   C31    1.41232       .     A
C27   C32    1.41101       .     D
C28   C30    1.45786   1_556     A
C28   O42    1.26495       .     S
C28   O48    1.27079       .     S
O29   C17    1.22105   1_564     D
C30   C26    1.41285       .     S
C30   C28    1.45786   1_554     A
C30   C32    1.41357       .     S
C31   C27    1.41232       .     D
C31   C33    1.41355       .     S
C31   C34    1.45752       .     S
C32   C27    1.41101       .     S
C32   C30    1.41357       .     D
C32   C40    1.49500   1_565     D
C33   C14    1.49527       .     S
C33   C26    1.41168       .     A
C33   C31    1.41355       .     A
C34   C31    1.45752       .     A
C34   O41    1.27051       .     A
C34   O43    1.26523       .     A
C35   C17    1.48814   1_455     A
C35   C24    1.41973       .     A
C35   C37    1.41969   1_546     S
C36   C18    1.48813       .     S
C36   C25    1.41987   1_455     A
C36   C39    1.41976   1_455     S
C37   C19    1.49335       .     S
C37   C35    1.41969   1_564     S
C37   C40    1.42224   1_565     A
C38   C15    1.41173   1_556     A
C38   C24    1.39961       .     S
C38   O53    1.38408       .     A
C39   C14    1.42216       .     S
C39   C20    1.49338       .     S
C39   C36    1.41976   1_655     A
C40   C15    1.42092       .     D
C40   C32    1.49500   1_545     S
C40   C37    1.42224   1_545     S
O41   Cu1    5.91342       .     D
O41   C34    1.27051       .     S
O42   Cu1    5.46179       .     S
O42   C28    1.26495       .     A
O43   Cu0    5.53256       .     D
O43   C34    1.26523       .     S
O44   H2     0.98747   1_455     A
O44   C24    1.38393       .     S
O45   H12    0.98738       .     S
O45   C25    1.38386   1_455     S
O46   C18    1.22126       .     S
O47   C19    1.22040       .     S
O48   Cu0    5.85594       .     D
O48   C28    1.27079       .     S
O49   C20    1.22040       .     S
O50   H6     0.98764       .     D
O50   C15    1.38585       .     S
O51   H7     0.98766       .     T
O51   C16    1.38581       .     S
O52   H8     0.98929       .     D
O52   C23    1.38430       .     S
O53   H9     0.98940       .     S
O53   C38    1.38408       .     D
O54   C21    1.22008       .     S
O55   C22    1.22003       .     T
C56   C58    1.41243       .     T
C56   O60    1.27855       .     T
C56   O63    1.27306       .     S
C57   C59    1.41242       .     S
C57   O61    1.27855       .     S
C57   O62    1.27306       .     S
C58   C56    1.41243       .     S
C58   C59    1.19233       .     S
C59   C57    1.41242       .     S
C59   C58    1.19233       .     S
O60   Cu1    1.87395       .     S
O60   C56    1.27855       .     S
O61   Cu0    1.93247   1_545     S
O61   C57    1.27855       .     S
O62   Cu1    2.05282   1_545     S
O62   C57    1.27306       .     S
O63   Cu0    1.98612       .     S
O63   C56    1.27306       .     S
N64   Cu0    1.94101       .     S
N64   N65    1.19179   1_655     S
N65   Cu1    1.96874       .     S
N65   N64    1.19179   1_455     S
