data_I
_chemical_name_common  '/home/sibivarshan_m7/MOFDiff/MOFDiff/results/nh3_target_12.0mmol/cif/sample_13'
_cell_length_a 14.24996
_cell_length_b 18.34534
_cell_length_c 18.62585
_cell_angle_alpha 88.03455
_cell_angle_beta  88.78093
_cell_angle_gamma 90.93830
_space_group_name_H-M_alt      'P 1'


loop_
_space_group_symop_operation_xyz
  'x, y, z' 

loop_
_atom_site_label
_atom_site_fract_x
_atom_site_fract_y
_atom_site_fract_z
_atom_site_type_symbol
Zn0   0.5955165 0.5839401 0.531335    Zn
Zn1   0.6926973 0.68138516 0.40566722    Zn
Zn2   0.8021601 0.6470141 0.5493609    Zn
Zn3   0.62925744 0.75327265 0.5508431    Zn
O4    0.6799074 0.6664065 0.50930387     O
H5    0.3639571 0.97513115 0.70136863     H
H6    0.9943685 0.8684433 0.8188802     H
H7    0.4541361 0.99913126 0.5888173     H
H8    0.9024398 0.84465116 0.9307064     H
C9    0.58188623 0.9341527 0.76209086     C
C10   0.77504534 0.9009091 0.75468546     C
C11   0.74280494 0.85825646 0.63254964     C
C12   0.61463326 0.9739553 0.8859656     C
C13   0.634049 0.9242966 0.82598174     C
C14   0.7228672 0.90943974 0.69081116     C
C15   0.48288172 0.94460493 0.76257247     C
C16   0.87443596 0.89248526 0.75486726     C
C17   0.438787 0.967468 0.70008826     C
C18   0.9189099 0.87351775 0.8186241     C
C19   0.48955303 0.9792732 0.6362657     C
C20   0.867164 0.86093915 0.88200533     C
C21   0.5850807 0.9647604 0.63312155     C
C22   0.770303 0.8682244 0.8826021     C
C23   0.6308497 0.9368457 0.6949492     C
C24   0.72547394 0.89673793 0.82123667     C
Cl25  0.4074522 0.9251373 0.8376653    Cl
Cl26  0.9490361 0.91137695 0.6792542    Cl
Cl27  0.64686424 0.98899347 0.5523493    Cl
Cl28  0.7047012 0.8341286 0.9580551    Cl
O29   0.6807994 0.8470814 0.584346     O
O30   0.67654794 0.9847698 0.9347621     O
O31   0.81109685 0.8154997 0.6417706     O
O32   0.5462507 0.016351461 0.87733746     O
C33   0.9423741 0.679211 0.5074135     C
C34   0.043448243 0.6732375 0.5083417     C
C35   0.12815931 0.6682031 0.5091061     C
C36   0.22759436 0.66230434 0.5099915     C
C37   0.31232753 0.6573196 0.5107613     C
C38   0.4134384 0.65152395 0.51169574     C
O39   0.8942504 0.6736355 0.5667691     O
O40   0.90102786 0.6903047 0.44727144     O
O41   0.45081156 0.5871555 0.50558704     O
O42   0.46439397 0.7108997 0.51862806     O
H43   0.45350027 0.058282733 0.38073573     H
H44   0.9022259 0.78040224 0.12815472     H
H45   0.36718887 0.9473454 0.34869298     H
H46   0.9869719 0.89180756 0.16106422     H
C47   0.6306276 0.9740822 0.29132012     C
C48   0.7270581 0.85956454 0.22534147     C
C49   0.62634933 0.7765692 0.30288607     C
C50   0.7351685 0.05685401 0.21517713     C
C51   0.72017384 0.98705477 0.25743786     C
C52   0.63843304 0.84608084 0.26019612     C
C53   0.5825696 0.0279212 0.3307951     C
C54   0.774515 0.8067889 0.1840306     C
C55   0.48878598 0.017069101 0.35095876     C
C56   0.866992 0.8198631 0.16051446     C
C57   0.44092935 0.9536255 0.33428475     C
C58   0.9145505 0.8831896 0.17833343     C
C59   0.4877876 0.89810866 0.30011344     C
C60   0.8696759 0.9347725 0.21907242     C
C61   0.58511883 0.90566725 0.28301156     C
C62   0.7727663 0.9272952 0.23517068     C
Cl63  0.63616115 0.10816324 0.36198336    Cl
Cl64  0.72047687 0.72638065 0.15379123    Cl
Cl65  0.41979992 0.8227572 0.27339152    Cl
Cl66  0.93777704 0.0045142174 0.25617772    Cl
O67   0.56213814 0.7706338 0.35286736     O
O68   0.80015576 0.063088775 0.16535237     O
O69   0.6930732 0.7316449 0.2992302     O
O70   0.66922075 0.10207772 0.21898954     O
H71   0.9654134 0.450574 0.8831498     H
H72   0.39612544 0.367709 0.63900167     H
H73   0.015357256 0.42240596 0.7601795     H
H74   0.34808218 0.3962515 0.7623396     H
C75   0.7490125 0.42259893 0.81279814     C
C76   0.613112 0.40451112 0.7059165     C
C77   0.7264219 0.4716733 0.624019     C
C78   0.6326578 0.3576857 0.8952015     C
C79   0.65313345 0.4082314 0.83230096     C
C80   0.7084498 0.42011353 0.6861892     C
C81   0.8189608 0.4385179 0.86392707     C
C82   0.5431345 0.3865005 0.6554589     C
C83   0.9134587 0.43846497 0.8438741     C
C84   0.4488239 0.38263068 0.6769795     C
C85   0.9412966 0.42426723 0.7739938     C
C86   0.42172158 0.39787167 0.74687576     C
C87   0.87440443 0.41344664 0.72187173     C
C88   0.48885307 0.4161629 0.7964489     C
C89   0.77732885 0.4178682 0.7396851     C
C90   0.58513033 0.4108676 0.7786223     C
Cl91  0.79443794 0.46449193 0.9528664    Cl
Cl92  0.5684426 0.36135927 0.56643975    Cl
Cl93  0.9150436 0.3874708 0.63636017    Cl
Cl94  0.45152113 0.45314062 0.8781111    Cl
O95   0.8063588 0.5057173 0.61705405     O
O96   0.5521063 0.3239079 0.9025816     O
O97   0.6552543 0.49227947 0.58924216     O
O98   0.70321083 0.33734572 0.93039346     O
H99   0.41320094 0.48217788 0.12787768     H
H100  0.95418006 0.34688812 0.38848847     H
H101  0.3648612 0.48738027 0.2551453     H
H102  0.0019859076 0.3403333 0.26119864     H
C103  0.68950695 0.31746572 0.14513013     C
C104  0.6774236 0.5109294 0.3711853     C
C105  0.86518866 0.36669168 0.22159696     C
C106  0.50179154 0.4614229 0.29476076     C
C107  0.8159514 0.38642251 0.36583957     C
C108  0.5512405 0.44220036 0.15049876     C
C109  0.93082404 0.35510263 0.2752333     C
C110  0.43615177 0.4729722 0.24112347     C
C111  0.90470225 0.36102614 0.347156     C
C112  0.4625221 0.46766365 0.16919635     C
C113  0.7521599 0.40627703 0.31123558     C
C114  0.6149117 0.42213598 0.20510915     C
C115  0.77146757 0.38457403 0.24055313     C
C116  0.5955531 0.44374076 0.27579218     C
C117  0.6704188 0.44704062 0.3244152     C
C118  0.6965966 0.38133413 0.19191943     C
Cl119 0.9075309 0.37044838 0.13171075    Cl
Cl120 0.45951128 0.4575388 0.38464367    Cl
Cl121 0.7824138 0.38053355 0.45771897    Cl
Cl122 0.58490485 0.4481536 0.058674842    Cl
O123  0.75427663 0.2693633 0.14574468     O
O124  0.612635 0.5590363 0.37056646     O
O125  0.75477093 0.52492005 0.40283102     O
O126  0.6121407 0.30347964 0.11348008     O
C127  0.04735208 0.16089562 0.01171452     C
C128  0.3154037 0.16989355 0.004271667     C
C129  0.94712377 0.15758654 0.014588089     C
C130  0.41559318 0.17320135 0.001399216     C
C131  0.13213691 0.16373387 0.009352979     C
C132  0.23063865 0.16704722 0.006637601     C
O133  0.9024015 0.12728813 0.9647399     O
O134  0.902599 0.18494572 0.06700797     O
O135  0.460099 0.14584702 0.9490101     O
O136  0.46029633 0.20347615 0.0512276     O
Zn137 0.64282435 0.12996177 0.10553827    Zn
Zn138 0.5726865 0.16875537 0.9483126    Zn
Zn139  0.77419 0.10095347 0.9700481    Zn
Zn140 0.735556 0.26284167 0.015015139    Zn
O141  0.6813179 0.16563137 0.009728187     O
loop_
_geom_bond_atom_site_label_1
_geom_bond_atom_site_label_2
_geom_bond_distance
_geom_bond_site_symmetry_2
_ccdc_geom_bond_type
Zn0   O4     1.94427       .     S
Zn0   O41    2.12829       .     S
Zn0   O42    3.01589       .     S
Zn0   O97    2.16266       .     S
Zn1   O4     1.94470       .     S
Zn1   O29    4.58601       .     S
Zn1   O40    3.08725       .     S
Zn1   O69    2.15741       .     S
Zn2   O4     1.94307       .     D
Zn2   O31    3.59082       .     S
Zn2   O39    1.44004       .     S
Zn2   O95    2.84545       .     S
Zn3   O4     1.93844       .     S
Zn3   O67    3.83316       .     A
Zn3   O124   4.98550       .     A
Zn3   O125   5.40152       .     A
O4    Zn0    1.94427       .     A
O4    Zn1    1.94470       .     S
O4    Zn2    1.94307       .     A
O4    Zn3    1.93844       .     A
H5    C17    1.07770       .     S
H6    C18    1.08092       .     A
H7    C19    1.08231       .     A
H8    C20    1.08191       .     A
C9    C13    1.42430       .     A
C9    C15    1.42677       .     S
C9    C23    1.41799       .     A
C10   C14    1.42177       .     A
C10   C16    1.42730       .     A
C10   C24    1.41274       .     A
C11   C14    1.48509       .     A
C11   O29    1.29201       .     S
C11   O31    1.27070       .     A
C12   C13    1.48985       .     S
C12   O30    1.29792       .     S
C12   O32    1.26618   1_565     S
C13   C9     1.42430       .     D
C13   C12    1.48985       .     S
C13   C24    1.40728       .     D
C14   C10    1.42177       .     S
C14   C11    1.48509       .     S
C14   C23    1.41352       .     S
C15   C9     1.42677       .     S
C15   C17    1.38978       .     A
C15   Cl25   1.76872       .     A
C16   C10    1.42730       .     A
C16   C18    1.39422       .     A
C16   Cl26   1.76760       .     S
C17   H5     1.07770       .     A
C17   C15    1.38978       .     A
C17   C19    1.38707       .     S
C18   H6     1.08092       .     A
C18   C16    1.39422       .     A
C18   C20    1.38900       .     A
C19   H7     1.08231       .     A
C19   C17    1.38707       .     S
C19   C21    1.39173       .     A
C20   H8     1.08191       .     A
C20   C18    1.38900       .     A
C20   C22    1.38874       .     A
C21   C19    1.39173       .     A
C21   C23    1.41994       .     S
C21   Cl27   1.76666       .     A
C22   C20    1.38874       .     S
C22   C24    1.41036       .     S
C22   Cl28   1.76207       .     S
C23   C9     1.41799       .     D
C23   C14    1.41352       .     S
C23   C21    1.41994       .     D
C24   C10    1.41274       .     S
C24   C13    1.40728       .     S
C24   C22    1.41036       .     S
Cl25  C15    1.76872       .     T
Cl26  C16    1.76760       .     T
Cl27  C21    1.76666       .     S
Cl28  C22    1.76207       .     D
O29   Zn1    4.58601       .     S
O29   C11    1.29201       .     D
O30   C12    1.29792       .     S
O30   Zn140  5.42227   1_566     S
O31   Zn2    3.59082       .     S
O31   C11    1.27070       .     T
O32   C12    1.26618   1_545     T
O32   Zn138  3.15386       .     S
C33   C34    1.44668   1_655     D
C33   O39    1.28866       .     S
C33   O40    1.28832       .     D
C34   C33    1.44668   1_455     S
C34   C35    1.21251       .     S
C35   C34    1.21251       .     S
C35   C36    1.42324       .     S
C36   C35    1.42324       .     A
C36   C37    1.21275       .     A
C37   C36    1.21275       .     A
C37   C38    1.44691       .     A
C38   C37    1.44691       .     S
C38   O41    1.31082       .     A
C38   O42    1.31078       .     A
O39   Zn2    1.44004       .     S
O39   C33    1.28866       .     A
O40   Zn1    3.08725       .     A
O40   C33    1.28832       .     A
O41   Zn0    2.12829       .     A
O41   C38    1.31082       .     S
O42   Zn0    3.01589       .     A
O42   C38    1.31078       .     A
H43   C55    1.07770       .     A
H44   C56    1.08092       .     A
H45   C57    1.08231       .     A
H46   C58    1.08191       .     S
C47   C51    1.42431       .     A
C47   C53    1.42677   1_565     S
C47   C61    1.41799       .     S
C48   C52    1.42177       .     S
C48   C54    1.42729       .     D
C48   C62    1.41274       .     S
C49   C52    1.48509       .     D
C49   O67    1.29201       .     S
C49   O69    1.27069       .     S
C50   C51    1.48985   1_545     S
C50   O68    1.29792       .     S
C50   O70    1.26618       .     A
C51   C47    1.42431       .     A
C51   C50    1.48985   1_565     A
C51   C62    1.40728       .     A
C52   C48    1.42177       .     S
C52   C49    1.48509       .     A
C52   C61    1.41352       .     A
C53   C47    1.42677   1_545     S
C53   C55    1.38978       .     A
C53   Cl63   1.76872       .     A
C54   C48    1.42729       .     A
C54   C56    1.39422       .     A
C54   Cl64   1.76760       .     S
C55   H43    1.07770       .     A
C55   C53    1.38978       .     A
C55   C57    1.38707   1_545     A
C56   H44    1.08092       .     A
C56   C54    1.39422       .     A
C56   C58    1.38900       .     S
C57   H45    1.08231       .     A
C57   C55    1.38707   1_565     S
C57   C59    1.39173       .     S
C58   H46    1.08191       .     S
C58   C56    1.38900       .     D
C58   C60    1.38874       .     S
C59   C57    1.39173       .     D
C59   C61    1.41994       .     S
C59   Cl65   1.76666       .     S
C60   C58    1.38874       .     S
C60   C62    1.41036       .     S
C60   Cl66   1.76207   1_565     A
C61   C47    1.41799       .     A
C61   C52    1.41352       .     A
C61   C59    1.41994       .     A
C62   C48    1.41274       .     S
C62   C51    1.40728       .     A
C62   C60    1.41036       .     A
Cl63  C53    1.76872       .     S
Cl64  C54    1.76760       .     A
Cl65  C59    1.76666       .     A
Cl66  C60    1.76207   1_545     A
O67   Zn3    3.83316       .     A
O67   C49    1.29201       .     S
O68   C50    1.29792       .     A
O68   Zn139  3.70739   1_554     A
O69   Zn1    2.15741       .     A
O69   C49    1.27069       .     A
O70   C50    1.26618       .     A
O70   Zn137  2.19874       .     S
H71   C83    1.07770       .     A
H72   C84    1.08092       .     S
H73   C85    1.08231   1_455     S
H74   C86    1.08191       .     S
C75   C79    1.42431       .     D
C75   C81    1.42677       .     S
C75   C89    1.41799       .     D
C76   C80    1.42177       .     S
C76   C82    1.42729       .     S
C76   C90    1.41274       .     S
C77   C80    1.48509       .     S
C77   O95    1.29201       .     A
C77   O97    1.27069       .     A
C78   C79    1.48985       .     A
C78   O96    1.29792       .     A
C78   O98    1.26618       .     S
C79   C75    1.42431       .     A
C79   C78    1.48985       .     A
C79   C90    1.40728       .     S
C80   C76    1.42177       .     A
C80   C77    1.48509       .     A
C80   C89    1.41352       .     A
C81   C75    1.42677       .     A
C81   C83    1.38978       .     S
C81   Cl91   1.76872       .     A
C82   C76    1.42729       .     A
C82   C84    1.39422       .     A
C82   Cl92   1.76760       .     A
C83   H71    1.07770       .     A
C83   C81    1.38978       .     S
C83   C85    1.38708       .     A
C84   H72    1.08092       .     S
C84   C82    1.39422       .     S
C84   C86    1.38900       .     S
C85   H73    1.08231   1_655     D
C85   C83    1.38708       .     S
C85   C87    1.39172       .     S
C86   H74    1.08191       .     S
C86   C84    1.38900       .     A
C86   C88    1.38874       .     A
C87   C85    1.39172       .     A
C87   C89    1.41994       .     A
C87   Cl93   1.76666       .     S
C88   C86    1.38874       .     S
C88   C90    1.41036       .     A
C88   Cl94   1.76207       .     A
C89   C75    1.41799       .     S
C89   C80    1.41352       .     A
C89   C87    1.41994       .     A
C90   C76    1.41274       .     A
C90   C79    1.40728       .     A
C90   C88    1.41036       .     D
Cl91  C81    1.76872       .     S
Cl92  C82    1.76760       .     D
Cl93  C87    1.76666       .     S
Cl94  C88    1.76207       .     S
O95   Zn2    2.84545       .     A
O95   C77    1.29201       .     A
O96   C78    1.29792       .     A
O96   Zn138  2.96391       .     A
O97   Zn0    2.16266       .     S
O97   C77    1.27069       .     A
O98   C78    1.26618       .     S
O98   Zn140  2.11391   1_556     A
H99   C112   1.08269       .     S
H100  C111   1.08279       .     S
H101  C110   1.08275       .     S
H102  C109   1.08288   1_455     S
C103  C118   1.48744       .     A
C103  O123   1.28730       .     A
C103  O126   1.28746       .     A
C104  C117   1.48744       .     A
C104  O124   1.28756       .     S
C104  O125   1.28720       .     S
C105  C109   1.39633       .     A
C105  C115   1.42061       .     A
C105  Cl119  1.76622       .     S
C106  C110   1.39628       .     A
C106  C116   1.42027       .     A
C106  Cl120  1.76588       .     A
C107  C111   1.39618       .     A
C107  C113   1.42062       .     D
C107  Cl121  1.76622       .     S
C108  C112   1.39626       .     D
C108  C114   1.42051       .     S
C108  Cl122  1.76571       .     S
C109  H102   1.08288   1_655     A
C109  C105   1.39633       .     A
C109  C111   1.39106       .     A
C110  H101   1.08275       .     A
C110  C106   1.39628       .     S
C110  C112   1.39076       .     A
C111  H100   1.08279       .     S
C111  C107   1.39618       .     A
C111  C109   1.39106       .     S
C112  H99    1.08269       .     S
C112  C108   1.39626       .     D
C112  C110   1.39076       .     S
C113  C107   1.42062       .     S
C113  C115   1.41123       .     T
C113  C117   1.41606       .     S
C114  C108   1.42051       .     T
C114  C116   1.41080       .     S
C114  C118   1.41582       .     D
C115  C105   1.42061       .     S
C115  C113   1.41123       .     D
C115  C118   1.41602       .     S
C116  C106   1.42027       .     S
C116  C114   1.41080       .     T
C116  C117   1.41589       .     S
C117  C104   1.48744       .     T
C117  C113   1.41606       .     S
C117  C116   1.41589       .     D
C118  C103   1.48744       .     S
C118  C114   1.41582       .     S
C118  C115   1.41602       .     S
Cl119 C105   1.76622       .     S
Cl120 C106   1.76588       .     S
Cl121 C107   1.76622       .     S
Cl122 C108   1.76571       .     S
O123  C103   1.28730       .     S
O123  Zn139  4.58451   1_554     S
O124  Zn3    4.98550       .     S
O124  C104   1.28756       .     S
O125  Zn3    5.40152       .     S
O125  C104   1.28720       .     S
O126  C103   1.28746       .     S
O126  Zn140  2.64796       .     S
C127  C129   1.42833   1_455     S
C127  C131   1.20825       .     S
C128  C130   1.42778       .     S
C128  C132   1.20797       .     S
C129  C127   1.42833   1_655     S
C129  O133   1.27519   1_554     S
C129  O134   1.27493       .     S
C130  C128   1.42778       .     S
C130  O135   1.27432   1_554     S
C130  O136   1.27458       .     S
C131  C127   1.20825       .     S
C131  C132   1.40373       .     S
C132  C128   1.20797       .     S
C132  C131   1.40373       .     S
O133  C129   1.27519   1_556     S
O133  Zn139  1.88183       .     S
O134  C129   1.27493       .     S
O134  Zn137  3.86661       .     S
O135  C130   1.27432   1_556     S
O135  Zn138  1.65150       .     S
O136  C130   1.27458       .     S
O136  Zn137  3.12101       .     S
Zn137 O70    2.19874       .     S
Zn137 O134   3.86661       .     S
Zn137 O136   3.12101       .     S
Zn137 O141   1.94427       .     S
Zn138 O32    3.15386       .     S
Zn138 O96    2.96391       .     S
Zn138 O135   1.65150       .     S
Zn138 O141   1.94470   1_556     S
Zn139 O68    3.70739   1_556     S
Zn139 O123   4.58451   1_556     S
Zn139 O133   1.88183       .     S
Zn139 O141   1.94307   1_556     S
Zn140 O30    5.42227   1_544     S
Zn140 O98    2.11391   1_554     S
Zn140 O126   2.64796       .     S
Zn140 O141   1.93844       .     S
O141  Zn137  1.94427       .     S
O141  Zn138  1.94470   1_554     S
O141  Zn139  1.94307   1_554     S
O141  Zn140  1.93844       .     S
