data_I
_chemical_name_common  '/home/sibivarshan_m7/MOFDiff/MOFDiff/results/nh3_target_12.0mmol/cif/sample_2'
_cell_length_a 10.81677
_cell_length_b 12.05878
_cell_length_c 19.16240
_cell_angle_alpha 92.44674
_cell_angle_beta  91.91457
_cell_angle_gamma 105.02432
_space_group_name_H-M_alt      'P 1'


loop_
_space_group_symop_operation_xyz
  'x, y, z' 

loop_
_atom_site_label
_atom_site_fract_x
_atom_site_fract_y
_atom_site_fract_z
_atom_site_type_symbol
H0    0.5539833 0.17914826 0.44140923     H
H1    0.3052078 0.29466897 0.12866138     H
H2    0.5141752 0.20128924 0.56499845     H
H3    0.25164413 0.30121657 0.0045707603     H
H4    0.28756797 0.95100033 0.31406844     H
H5    0.5033168 0.319239 0.21199414     H
H6    0.29992852 0.9597845 0.18702072     H
H7    0.4842638 0.31151825 0.33886573     H
C8    0.29418942 0.16397578 0.9006733     C
C9    0.2912454 0.16694686 0.6232533     C
C10   0.20262359 0.12789218 0.5003048     C
C11   0.38285452 0.07159415 0.99630225     C
C12   0.22609341 0.114441216 0.42909425     C
C13   0.4187614 0.070375875 0.06735591     C
C14   0.35355413 0.1325433 0.40824324     C
C15   0.38866192 0.15037985 0.115355864     C
C16   0.4561133 0.16410902 0.4574299     C
C17   0.32957074 0.23355553 0.09204175     C
C18   0.433449 0.17818937 0.52730596     C
C19   0.29664978 0.23602554 0.02185468     C
C20   0.30794823 0.16007327 0.5489046     C
C21   0.32006598 0.15405382 0.97433656     C
C22   0.33558577 0.031113142 0.29192483     C
C23   0.45792654 0.23828533 0.2340864     C
C24   0.34443992 0.035851337 0.21997936     C
C25   0.44737792 0.2338276 0.30593833     C
C26   0.4025008 0.14029242 0.19074206     C
C27   0.38184252 0.13133276 0.33455184     C
N28   0.07362234 0.111885265 0.5226519     N
N29   0.4200405 0.99617404 0.9460523     N
N30   0.12223252 0.09294129 0.37775585     N
N31   0.4863035   0.9893 0.09042148     N
O32   0.22522886 0.07576998 0.86484385     O
O33   0.35639635 0.2567597 0.65912116     O
O34   0.35626078 0.254767 0.8716121     O
O35   0.22536442 0.07776271 0.6523529     O
O36   0.047112063 0.1826972 0.5694357     O
O37   0.9813978 0.027747732 0.49539378     O
O38   0.3338212 0.9115664 0.9145422     O
O39   0.54077345 0.0017561888 0.9394864     O
O40   0.067890584 0.17437021 0.36385053     O
O41   0.07001809 0.98860157 0.3528958     O
O42   0.58461654 0.022372214 0.13445464     O
O43   0.44975254 0.8820854 0.06768753     O
Zn44  0.43175802 0.23367676 0.76789314    Zn
Zn45  0.15269053 0.09892144 0.75848293    Zn
H46   0.013970375 0.50293875 0.6724931     H
H47   0.16299367 0.43074587 0.72935236     H
H48   0.3975626 0.87837625 0.7874584     H
H49   0.72467023 0.51476187 0.80980504     H
H50   0.9439661 0.0017096124 0.6992945     H
H51   0.53699714 0.77837354 0.80269545     H
H52   0.817965 0.54510456 0.70423836     H
H53   0.7526303 0.76720214 0.7861461     H
C54   0.54185694 0.18523501 0.7203172     C
C55   0.033842206 0.14580105 0.80928856     C
C56   0.9084971 0.15431955 0.78004843     C
C57   0.6589882 0.17624931 0.75852853     C
C58   0.98460203 0.34984097 0.7299277     C
C59   0.5775134 0.96053386 0.7837505     C
C60   0.9479344 0.44063863 0.69974923     C
C61   0.6095878 0.85683167 0.7947011     C
C62   0.8337069 0.46205115 0.7145631     C
C63   0.7323154 0.8503053 0.78742886     C
C64   0.75478446 0.38665473 0.7566998     C
C65   0.8895318 0.2589198 0.7573864     C
C66   0.82133114 0.9470444 0.7688385     C
C67   0.76616216 0.27331793 0.7592556     C
C68   0.8025936 0.056860078 0.7797283     C
C69   0.67646027 0.06588517 0.7757481     C
O70   0.5499134 0.27839342 0.68295056     O
O71   0.03476429 0.051270887 0.8425258     O
O72   0.47637823 0.08527196 0.69344896     O
O73   0.108299255 0.24439228 0.8320273     O
O74   0.110153794 0.34997433 0.7296471     O
O75   0.45073414 0.95738673 0.7829267     O
O76   0.69977915 0.42957646 0.81055033     O
O77   0.9056303 0.9302169 0.7218123     O
H78   0.23167986 0.72129595 0.8793074     H
H79   0.4917116 0.6892075 0.8889349     H
H80   0.09375083 0.6372172 0.6376876     H
H81   0.35379407 0.6050822 0.6473136     H
H82   0.0693734 0.5570436 0.78060496     H
H83   0.5161215 0.76938707 0.7460289     H
C84   0.17046522 0.604339 0.7735896     C
C85   0.41501316 0.7221007 0.7530328     C
C86   0.25785807 0.69552886 0.82666814     C
C87   0.32761797 0.6309102 0.6999418     C
C88   0.21669084 0.6861631 0.7145034     C
C89   0.3687876 0.6402767 0.8121189     C
C90   0.30207217 0.77654666 0.7663361     C
C91   0.28340477 0.54990476 0.76027423     C
C92   0.31069806 0.90272033 0.76861537     C
C93   0.27478537 0.42375708 0.7580201     C
N94   0.31757677 0.0011925697 0.7704848     N
N95   0.267925 0.32530037 0.7561627     N
O96   0.44950503 0.61460817 0.86396027     O
O97   0.13595818 0.7118289 0.66266245     O
loop_
_geom_bond_atom_site_label_1
_geom_bond_atom_site_label_2
_geom_bond_distance
_geom_bond_site_symmetry_2
_ccdc_geom_bond_type
H0    C16    1.08387       .     D
H1    C17    1.08344       .     S
H2    C18    1.08459       .     S
H3    C19    1.08376       .     D
H4    C22    1.08290   1_565     D
H5    C23    1.08348       .     S
H6    C24    1.08320   1_565     A
H7    C25    1.08348       .     A
C8    C21    1.44588       .     A
C8    O32    1.28501       .     S
C8    O34    1.28666       .     A
C9    C20    1.44366       .     S
C9    O33    1.28467       .     A
C9    O35    1.28677       .     D
C10   C12    1.40655       .     A
C10   C20    1.40885       .     S
C10   N28    1.44050       .     D
C11   C13    1.40508   1_556     S
C11   C21    1.41208       .     A
C11   N29    1.43419   1_545     A
C12   C10    1.40655       .     S
C12   C14    1.41293       .     S
C12   N30    1.43196       .     A
C13   C11    1.40508   1_554     A
C13   C15    1.41062       .     S
C13   N31    1.43896   1_545     A
C14   C12    1.41293       .     S
C14   C16    1.39446       .     A
C14   C27    1.45510       .     S
C15   C13    1.41062       .     D
C15   C17    1.40203       .     D
C15   C26    1.46083       .     S
C16   H0     1.08387       .     A
C16   C14    1.39446       .     A
C16   C18    1.38056       .     A
C17   H1     1.08344       .     S
C17   C15    1.40203       .     A
C17   C19    1.38330       .     S
C18   H2     1.08459       .     A
C18   C16    1.38056       .     D
C18   C20    1.39763       .     A
C19   H3     1.08376       .     S
C19   C17    1.38330       .     D
C19   C21    1.39238   1_554     S
C20   C9     1.44366       .     D
C20   C10    1.40885       .     S
C20   C18    1.39763       .     D
C21   C8     1.44588       .     S
C21   C11    1.41208       .     S
C21   C19    1.39238   1_556     D
C22   H4     1.08290   1_545     D
C22   C24    1.38774       .     S
C22   C27    1.39750       .     A
C23   H5     1.08348       .     A
C23   C25    1.38754       .     A
C23   C26    1.40046       .     S
C24   H6     1.08320   1_545     A
C24   C22    1.38774       .     S
C24   C26    1.40291       .     A
C25   H7     1.08348       .     D
C25   C23    1.38754       .     A
C25   C27    1.40012       .     S
C26   C15    1.46083       .     D
C26   C23    1.40046       .     S
C26   C24    1.40291       .     A
C27   C14    1.45510       .     A
C27   C22    1.39750       .     S
C27   C25    1.40012       .     S
N28   C10    1.44050       .     A
N28   O36    1.30148       .     A
N28   O37    1.30099   1_455     S
N29   C11    1.43419   1_565     A
N29   O38    1.30067       .     S
N29   O39    1.30076   1_565     A
N30   C12    1.43196       .     S
N30   O40    1.30070       .     D
N30   O41    1.30055   1_545     D
N31   C13    1.43896   1_565     S
N31   O42    1.30128   1_565     A
N31   O43    1.30116       .     A
O32   C8     1.28501       .     A
O32   Zn45   2.21424       .     S
O33   C9     1.28467       .     A
O33   Zn44   2.26717       .     S
O34   C8     1.28666       .     A
O34   Zn44   2.20334       .     D
O35   C9     1.28677       .     A
O35   Zn45   2.23283       .     S
O36   N28    1.30148       .     D
O37   N28    1.30099   1_655     S
O38   N29    1.30067       .     D
O39   N29    1.30076   1_545     S
O40   N30    1.30070       .     S
O41   N30    1.30055   1_565     S
O42   N31    1.30128   1_545     D
O43   N31    1.30116       .     S
Zn44  O33    2.26717       .     S
Zn44  O34    2.20334       .     S
Zn44  Zn45   3.02994       .     S
Zn44  O70    2.10482       .     A
Zn44  O72    2.39716       .     A
Zn44  N95    2.32841       .     S
Zn45  O32    2.21424       .     S
Zn45  O35    2.23283       .     S
Zn45  Zn44   3.02994       .     A
Zn45  O71    2.09455       .     A
Zn45  O73    2.35897       .     A
Zn45  N94    2.38919       .     A
H46   C60    1.06189   1_455     A
H47   O74    0.99371       .     A
H48   O75    0.98610       .     A
H49   O76    0.99298       .     S
H50   O77    0.97967   1_545     A
H51   C61    1.08184       .     S
H52   C62    1.08364       .     A
H53   C63    1.07961       .     A
C54   C57    1.47278       .     A
C54   O70    1.34327       .     A
C54   O72    1.30376       .     A
C55   C56    1.47957   1_455     S
C55   O71    1.33140       .     S
C55   O73    1.29917       .     S
C56   C55    1.47957   1_655     A
C56   C65    1.41303       .     S
C56   C68    1.41223       .     S
C57   C54    1.47278       .     S
C57   C67    1.41713       .     D
C57   C69    1.44205       .     S
C58   C60    1.39802       .     D
C58   C65    1.42735       .     S
C58   O74    1.35784   1_655     S
C59   C61    1.40381       .     S
C59   C69    1.45107   1_565     S
C59   O75    1.36154       .     A
C60   H46    1.06189   1_655     A
C60   C58    1.39802       .     S
C60   C62    1.36253       .     S
C61   H51    1.08184       .     S
C61   C59    1.40381       .     A
C61   C63    1.36143       .     A
C62   H52    1.08364       .     A
C62   C60    1.36253       .     A
C62   C64    1.38336       .     A
C63   H53    1.07961       .     A
C63   C61    1.36143       .     A
C63   C66    1.37510       .     S
C64   C62    1.38336       .     A
C64   C67    1.40639       .     S
C64   O76    1.35713       .     A
C65   C56    1.41303       .     A
C65   C58    1.42735       .     A
C65   C67    1.39104       .     A
C66   C63    1.37510       .     A
C66   C68    1.39880   1_565     S
C66   O77    1.34904       .     S
C67   C57    1.41713       .     S
C67   C64    1.40639       .     A
C67   C65    1.39104       .     S
C68   C56    1.41223       .     S
C68   C66    1.39880   1_545     S
C68   C69    1.39638       .     D
C69   C57    1.44205       .     S
C69   C59    1.45107   1_545     S
C69   C68    1.39638       .     S
O70   Zn44   2.10482       .     S
O70   C54    1.34327       .     S
O71   Zn45   2.09455       .     S
O71   C55    1.33140       .     S
O72   Zn44   2.39716       .     S
O72   C54    1.30376       .     S
O73   Zn45   2.35897       .     S
O73   C55    1.29917       .     S
O74   H47    0.99371       .     S
O74   C58    1.35784   1_455     S
O75   H48    0.98610       .     S
O75   C59    1.36154       .     S
O76   H49    0.99298       .     T
O76   C64    1.35713       .     T
O77   H50    0.97967   1_565     S
O77   C66    1.34904       .     S
H78   C86    1.11002       .     S
H79   O96    0.99117       .     S
H80   O97    0.99129       .     S
H81   C87    1.11004       .     S
H82   C84    1.11000       .     S
H83   C85    1.11008       .     S
C84   H82    1.11000       .     S
C84   C86    1.56162       .     S
C84   C88    1.54369       .     S
C84   C91    1.55263       .     S
C85   H83    1.11008       .     S
C85   C87    1.56178       .     S
C85   C89    1.54368       .     S
C85   C90    1.55269       .     S
C86   H78    1.11002       .     S
C86   C84    1.56162       .     S
C86   C89    1.54350       .     S
C86   C90    1.55272       .     S
C87   H81    1.11004       .     S
C87   C85    1.56178       .     S
C87   C88    1.54353       .     T
C87   C91    1.55263       .     T
C88   C84    1.54369       .     S
C88   C87    1.54353       .     S
C88   C90    1.53355       .     S
C88   O97    1.39772       .     S
C89   C85    1.54368       .     S
C89   C86    1.54350       .     S
C89   C91    1.53362       .     S
C89   O96    1.39763       .     S
C90   C85    1.55269       .     S
C90   C86    1.55272       .     S
C90   C88    1.53355       .     S
C90   C92    1.49868       .     S
C91   C84    1.55263       .     S
C91   C87    1.55263       .     S
C91   C89    1.53362       .     S
C91   C93    1.49839       .     S
C92   C90    1.49868       .     S
C92   N94    1.16930   1_565     S
C93   C91    1.49839       .     S
C93   N95    1.16915       .     S
N94   Zn45   2.38919       .     S
N94   C92    1.16930   1_545     S
N95   Zn44   2.32841       .     S
N95   C93    1.16915       .     S
O96   H79    0.99117       .     S
O96   C89    1.39763       .     S
O97   H80    0.99129       .     S
O97   C88    1.39772       .     S
