data_I
_chemical_name_common  '/home/sibivarshan_m7/MOFDiff/MOFDiff/results/nh3_target_12.0mmol/cif/sample_0'
_cell_length_a 16.71055
_cell_length_b 16.95416
_cell_length_c 21.98251
_cell_angle_alpha 91.03547
_cell_angle_beta  91.77966
_cell_angle_gamma 81.26171
_space_group_name_H-M_alt      'P 1'


loop_
_space_group_symop_operation_xyz
  'x, y, z' 

loop_
_atom_site_label
_atom_site_fract_x
_atom_site_fract_y
_atom_site_fract_z
_atom_site_type_symbol
H0    0.46624634 0.59799916 0.3203893     H
H1    0.6471227 0.5881628 0.16671154     H
H2    0.5968639 0.8119713 0.42386496     H
H3    0.5123124 0.77912897 0.3869699     H
H4    0.5641315 0.8559943 0.35360667     H
H5    0.48369798 0.47886342 0.3681761     H
H6    0.5603595 0.39290708 0.35478148     H
H7    0.46971974 0.4088853 0.30801526     H
H8    0.7133891 0.8321852 0.22841099     H
H9    0.685281 0.84236956 0.3076961     H
H10   0.6274508 0.89961183 0.25061035     H
H11   0.78424084 0.57235885 0.17641525     H
H12   0.8426492 0.6232825 0.23226535     H
H13   0.81597114 0.6643412 0.15961836     H
H14   0.7689788 0.75282377 0.3641563     H
H15   0.79711443 0.7452335 0.28421324     H
H16   0.8556705 0.6900579 0.33946717     H
H17   0.65452313 0.623256 0.40749395     H
H18   0.7428172 0.54674983 0.3943423     H
H19   0.6779553 0.54069555 0.45529673     H
H20   0.479969 0.60503507 0.102333345     H
H21   0.40758246 0.6859035 0.13320273     H
H22   0.38324127 0.58624095 0.12605895     H
H23   0.52961516 0.64287674 0.37047222     H
H24   0.5427745 0.684408 0.1758111     H
C25   0.46030852 0.7392512 0.27385148     C
C26   0.72398025 0.49655074 0.26649693     C
C27   0.6145752 0.71629125 0.28785425     C
C28   0.68937576 0.6502913 0.27286643     C
C29   0.5273848 0.61632025 0.3242651     C
C30   0.5352601 0.63645047 0.20864658     C
C31   0.5334319 0.6776163 0.27414373     C
C32   0.5710611 0.7989945 0.37834543     C
C33   0.65663487 0.56395197 0.2658912     C
C34   0.5154391 0.4394262 0.33270246     C
C35   0.66245645 0.8400712 0.26017135     C
C36   0.7938183 0.6305123 0.19668068     C
C37   0.79270846 0.7124594 0.3265134     C
C38   0.67862374 0.5595222 0.4072859     C
C39   0.43266314 0.6215167 0.1367701     C
C40   0.59441173 0.5434022 0.31614295     C
C41   0.60944533 0.5699231 0.2028183     C
Br42  0.5855538 0.47016898 0.16308734    Br
O43   0.55400556 0.4816622 0.28998226     O
O44   0.61145794 0.78229725 0.24691562     O
O45   0.72017264 0.67426866 0.21652043     O
O46   0.7498794 0.6465505 0.32096317     O
O47   0.63212323 0.5120914 0.37232342     O
O48   0.46278822 0.60371304 0.19653714     O
O49   0.47373793 0.81053245 0.28155366     O
O50   0.38794613 0.7222427 0.2613194     O
O51   0.79475266 0.51225936 0.2807214     O
O52   0.7089608 0.42396963 0.26048714     O
O53   0.6255974 0.7377711 0.35107017     O
H54   0.9973136 0.39391646 0.6671613     H
H55   0.020035505 0.46197826 0.7629756     H
H56   0.6862376 0.3430755 0.87479526     H
H57   0.66353595 0.27500507 0.7790044     H
H58   0.89657307 0.6212318 0.9253597     H
H59   0.9229312 0.6895554 0.021386385     H
H60   0.90481836 0.47490683 0.11946452     H
H61   0.8830354 0.4055172 0.022957325     H
H62   0.7869954 0.11572741 0.6166445     H
H63   0.76064134 0.047365326 0.52063346     H
H64   0.7788042 0.26196066 0.42249924     H
H65   0.8005554 0.33138686 0.51897424     H
C66   0.75174105 0.10775576 0.40559623     C
C67   0.7555578 0.26956472 0.67891216     C
C68   0.8751653 0.30904624 0.6401668     C
C69   0.88886786 0.34986848 0.69509876     C
C70   0.83515215 0.34862605 0.7430132     C
C71   0.7681892 0.30778244 0.7351425     C
C72   0.955253 0.39137825 0.70332825     C
C73   0.9683201 0.43054163 0.7584591     C
C74   0.9153713 0.4292038 0.8068264     C
C75   0.8484176 0.3883486 0.7989453     C
C76   0.7946741 0.38713524 0.8468683     C
C77   0.72829646 0.34561107 0.8386299     C
C78   0.71522766 0.30644503 0.78350073     C
C79   0.9280176 0.46739888 0.86306226     C
C80   0.8083714 0.4279435 0.9017822     C
C81   0.8991842 0.5885702 0.9674313     C
C82   0.9139328 0.62767136 0.022414804     C
C83   0.9157736 0.5877173 0.07809198     C
C84   0.9031959 0.5075192 0.077411175     C
C85   0.8904941 0.4678368 0.022268414     C
C86   0.8880031 0.50792706 0.9665612     C
C87   0.78437877 0.14837505 0.5745549     C
C88   0.769647 0.10925988 0.51959825     C
C89   0.7678286 0.14917102 0.46389455     C
C90   0.78042096 0.22936527 0.46455976     C
C91   0.7931113 0.2690756 0.51969373     C
C92   0.7955744 0.22901444 0.5754094     C
C93   0.9318488 0.62911403 0.13640213     C
N94   0.8090255 0.27004403 0.63259083     N
N95   0.87453896 0.46692267 0.9093727     N
O96   0.7123813 0.047576286 0.40737617     O
O97   0.778609 0.13327341 0.3559169     O
O98   0.68956965 0.23319164 0.6705111     O
O99   0.9284187 0.30755836 0.5951199     O
O100  0.9940209 0.5037494 0.87146866     O
O101  0.75511575 0.4294536 0.9468329     O
O102  0.97120845 0.68929964 0.13464534     O
O103  0.9049829 0.6035742 0.18607771     O
H104  0.9155796 0.43962175 0.27590215     H
H105  0.7531273 0.26666167 0.2480713     H
H106  0.43494335 0.96084535 0.23578894     H
H107  0.15599503 0.9058054 0.26463908     H
H108  0.15986624 0.3114915 0.2935877     H
H109  0.08532989 0.25933304 0.32406032     H
H110  0.08628036 0.44061893 0.33929762     H
H111  0.0198505 0.38161546 0.37434348     H
H112  0.13851732 0.30388096 0.42963043     H
H113  0.13251059 0.4094777 0.44546834     H
H114  0.2059379 0.3614647 0.39312786     H
H115  0.8844046 0.06752468 0.15207334     H
H116  0.91918695 0.15992372 0.1391279     H
H117  0.7399026 0.13416529 0.14535296     H
H118  0.77327776 0.22800799 0.13079977     H
H119  0.84090865 0.16911277 0.036668416     H
H120  0.7339599 0.16315778 0.03489588     H
H121  0.80616534 0.07520987 0.051315855     H
H122  0.38455492 0.17615752 0.25371882     H
H123  0.41827297 0.082315624 0.28782043     H
H124  0.25113478 0.18636309 0.30656356     H
H125  0.2883841 0.094782874 0.3453235     H
H126  0.40266624 0.15720642 0.39188313     H
H127  0.30514896 0.2121998 0.41037387     H
H128  0.36442983 0.24964947 0.353389     H
H129  0.2138964 0.6880183 0.2507788     H
H130  0.27792048 0.72677994 0.19852164     H
H131  0.17725469 0.7800139 0.21410416     H
C132  0.82588345 0.36065152 0.26455015     C
C133  0.15751237 0.058919437 0.2384164     C
C134  0.027098075 0.17560504 0.23638473     C
C135  0.30879566 0.011887227 0.23693658     C
C136  0.3740127 0.9493038 0.24323718     C
C137  0.36126712 0.8725432 0.25937757     C
C138  0.28135347 0.856639 0.26487577     C
C139  0.2165906 0.9185825 0.25777638     C
C140  0.22894326 0.99583423 0.24301004     C
C141  0.7551838 0.4234979 0.27197236     C
C142  0.43130794 0.80895346 0.26800227     C
C143  0.90506446 0.37907505 0.26660648     C
C144  0.971683 0.31992766 0.25630414     C
C145  0.95861423 0.24096434 0.24181229     C
C146  0.8786115 0.22325893 0.2373996     C
C147  0.81367236 0.28228676 0.2505476     C
C148  0.09545061 0.31814975 0.3065348     C
C149  0.08165006 0.38090175 0.35728392     C
C150  0.14357075 0.36252806 0.4095736     C
C151  0.8692738 0.13306606 0.1592752     C
C152  0.78875005 0.16221024 0.125592     C
C153  0.7929902 0.1409781 0.057905264     C
C154  0.36317998 0.12225224 0.27134076     C
C155  0.30654067 0.14816144 0.32416433     C
C156  0.3475545 0.19467251 0.37289178     C
C157  0.23243402 0.7436886 0.23414539     C
N158  0.023915764 0.10539744 0.26396143     N
N159  0.08770226 0.048226103 0.26481795     N
N160  0.16019829 0.12865898 0.20963906     N
N161  0.09619424 0.18608157 0.20873626     N
O162  0.7660732 0.49614847 0.2865944     O
O163  0.6832361 0.40499634 0.26093704     O
O164  0.50265604 0.8270179 0.2837481     O
O165  0.41981897 0.7358657 0.25809076     O
O166  0.047754776 0.34273875 0.25392154     O
O167  0.86267275 0.14723156 0.22280386     O
O168  0.32231843 0.08796253 0.2224859     O
O169  0.26648578 0.782836 0.2835404     O
Cu170 0.4067426 0.90667987 0.28584617    Cu
Cu171 0.28463605 0.82473296 0.26095864    Cu
Cu172 0.8115657 0.29960126 0.2595022    Cu
Cu173 0.86665654 0.43621975 0.28728873    Cu
H174  0.32471788 0.69991136 0.8650579     H
H175  0.27535284 0.6775353 0.7619709     H
H176  0.36298126 0.036462784 0.68026876     H
H177  0.41236103 0.058822036 0.7833328     H
H178  0.1266542 0.79518026 0.5895247     H
H179  0.07755883 0.76916796 0.48603633     H
H180  0.29987317 0.82490885 0.41460803     H
H181  0.35056382 0.84645754 0.51848596     H
H182  0.5610865 0.94118565 0.9557579     H
H183  0.61022234 0.9672004 0.059235096     H
H184  0.38795844 0.9114116 0.1307224     H
H185  0.33722308 0.8898863 0.02687347     H
C186  0.5328057 0.95704645 0.16606605     C
C187  0.41536722 0.9582396 0.8783996     C
C188  0.3872239 0.8301662 0.9067277     C
C189  0.3572498 0.81642735 0.84739166     C
C190  0.3582635 0.8747103 0.80275124     C
C191  0.38799083 0.94603574 0.8181283     C
C192  0.32684454 0.7456243 0.8316116     C
C193  0.2984382 0.73275614 0.77229613     C
C194  0.29971695 0.7903312 0.7271863     C
C195  0.3294554 0.8616479 0.7425746     C
C196  0.3304381 0.9199555 0.6979237     C
C197  0.3608572 0.9907521 0.7137138     C
C198  0.38926616 0.003622532 0.773028     C
C199  0.2723656 0.77811587 0.66691154     C
C200  0.3004744 0.90622205 0.6386074     C
C201  0.16523765 0.8009275 0.55168253     C
C202  0.13709906 0.78637826 0.49244404     C
C203  0.18473779 0.79516214 0.4420655     C
C204  0.26147535 0.8181847 0.4523936     C
C205  0.29043782 0.8307564 0.5117632     C
C206  0.242573 0.8225993 0.56218505     C
C207  0.5225133 0.9354439 0.9936196     C
C208  0.5506717 0.9499809 0.052832484     C
C209  0.5030742 0.9411778 0.103241086     C
C210  0.42634016 0.9181395 0.09292817     C
C211  0.39734748 0.9055748 0.033564568     C
C212  0.44518125 0.9137566 0.98313224     C
C213  0.1550247 0.7793092 0.3792315     C
N214  0.41530344 0.9004574 0.92156875     N
N215  0.27242327 0.8359076 0.6237532     N
O216  0.58665746 0.0043492317 0.17289817     O
O217  0.5041017 0.9221421 0.21089184     O
O218  0.4407699 0.02795434 0.8937483     O
O219  0.38924667 0.77297896 0.9488746     O
O220  0.24698785 0.7083897 0.6515594     O
O221  0.2984301 0.9634089 0.59645426     O
O222  0.10117031 0.7320079 0.37237594     O
O223  0.18375015 0.81421405 0.3344119     O
H224  0.88942486 0.72837687 0.28387675     H
H225  0.28463644 0.5111658 0.22019285     H
C226  0.023015676 0.5355053 0.27270862     C
C227  0.09387158 0.57649493 0.26591265     C
C228  0.08948873 0.6579834 0.27277893     C
C229  0.011762613 0.711462 0.28502318     C
C230  0.17110738 0.5233652 0.25176707     C
C231  0.16127147 0.69841194 0.2692772     C
N232  0.96781987 0.5016231 0.2774836     N
N233  0.2170091 0.73193777 0.26635227     N
O234  0.013462955 0.77956265 0.3038996     O
O235  0.936875 0.68584806 0.27389586     O
O236  0.1767412 0.45149308 0.25988156     O
O237  0.23653013 0.55396444 0.22792934     O
H238  0.37711027 0.18819909 0.2806777     H
H239  0.8016066 0.04910793 0.3215839     H
C240  0.6037886 0.07568164 0.27770928     C
C241  0.58156866 0.15691495 0.27270192     C
C242  0.64175004 0.21197888 0.27037507     C
C243  0.54454035 0.019486634 0.2751371     C
C244  0.49495238 0.19491582 0.267481     C
C245  0.68997157 0.038782626 0.28760433     C
N246  0.4990985 0.97357965 0.2747936     N
N247  0.6877481 0.25707135 0.26780337     N
O248  0.47822773 0.26294693 0.24836442     O
O249  0.43262354 0.1549344 0.28579882     O
O250  0.7111202 0.96874845 0.27346882     O
O251  0.7462749 0.082254075 0.31525514     O
loop_
_geom_bond_atom_site_label_1
_geom_bond_atom_site_label_2
_geom_bond_distance
_geom_bond_site_symmetry_2
_ccdc_geom_bond_type
H0    C29    1.11247       .     D
H1    C41    1.10503       .     S
H2    C32    1.10890       .     S
H3    C32    1.10792       .     S
H4    C32    1.10640       .     S
H5    C34    1.11156       .     S
H6    C34    1.11013       .     S
H7    C34    1.10932       .     S
H8    C35    1.10845       .     S
H9    C35    1.10305       .     S
H10   C35    1.10724       .     S
H11   C36    1.10625       .     S
H12   C36    1.10734       .     S
H13   C36    1.10901       .     S
H14   C37    1.10804       .     S
H15   C37    1.10190       .     S
H16   C37    1.09371       .     S
H17   C38    1.09431       .     S
H18   C38    1.10667       .     S
H19   C38    1.10899       .     S
H20   C39    1.11286       .     S
H21   C39    1.11152       .     S
H22   C39    1.10819       .     S
H23   C29    1.10547       .     S
H24   C30    1.12060       .     S
C25   C31    1.48220       .     S
C25   O49    1.26972       .     S
C25   O50    1.30523       .     S
C26   C33    1.47694       .     S
C26   O51    1.27948       .     S
C26   O52    1.29638       .     S
C27   C28    1.58440       .     S
C27   C31    1.61152       .     S
C27   O44    1.44246       .     S
C27   O53    1.44356       .     S
C28   C27    1.58440       .     S
C28   C33    1.64183       .     S
C28   O45    1.44418       .     S
C28   O46    1.43549       .     S
C29   H0     1.11247       .     S
C29   H23    1.10547       .     S
C29   C31    1.54413       .     S
C29   C40    1.54870       .     S
C30   H24    1.12060       .     S
C30   C31    1.58776       .     S
C30   C41    1.55087       .     S
C30   O48    1.42282       .     S
C31   C25    1.48220       .     S
C31   C27    1.61152       .     S
C31   C29    1.54413       .     S
C31   C30    1.58776       .     S
C32   H2     1.10890       .     S
C32   H3     1.10792       .     S
C32   H4     1.10640       .     D
C32   O53    1.41119       .     S
C33   C26    1.47694       .     D
C33   C28    1.64183       .     S
C33   C40    1.61806       .     S
C33   C41    1.57079       .     S
C34   H5     1.11156       .     S
C34   H6     1.11013       .     S
C34   H7     1.10932       .     S
C34   O43    1.41849       .     S
C35   H8     1.10845       .     S
C35   H9     1.10305       .     S
C35   H10    1.10724       .     S
C35   O44    1.41369       .     S
C36   H11    1.10625       .     S
C36   H12    1.10734       .     S
C36   H13    1.10901       .     S
C36   O45    1.41397       .     S
C37   H14    1.10804       .     S
C37   H15    1.10190       .     S
C37   H16    1.09371       .     S
C37   O46    1.41718       .     S
C38   H17    1.09431       .     S
C38   H18    1.10667       .     S
C38   H19    1.10899       .     S
C38   O47    1.40413       .     S
C39   H20    1.11286       .     S
C39   H21    1.11152       .     S
C39   H22    1.10819       .     S
C39   O48    1.41342       .     S
C40   C29    1.54870       .     S
C40   C33    1.61806       .     S
C40   O43    1.43219       .     S
C40   O47    1.44147       .     S
C41   H1     1.10503       .     S
C41   C30    1.55087       .     S
C41   C33    1.57079       .     S
C41   Br42   1.97804       .     S
Br42  C41    1.97804       .     S
O43   C34    1.41849       .     S
O43   C40    1.43219       .     S
O44   C27    1.44246       .     S
O44   C35    1.41369       .     S
O45   C28    1.44418       .     S
O45   C36    1.41397       .     S
O46   C28    1.43549       .     S
O46   C37    1.41718       .     S
O47   C38    1.40413       .     S
O47   C40    1.44147       .     S
O48   C30    1.42282       .     S
O48   C39    1.41342       .     S
O49   C25    1.26972       .     S
O49   Cu170  1.83466       .     S
O50   C25    1.30523       .     S
O50   Cu171  2.25565       .     S
O51   C26    1.27948       .     D
O51   Cu173  1.62846       .     S
O52   C26    1.29638       .     D
O52   Cu172  2.50768       .     S
O53   C27    1.44356       .     S
O53   C32    1.41119       .     S
H54   C72    1.08309       .     A
H55   C73    1.08327   1_455     A
H56   C77    1.08304       .     A
H57   C78    1.08293       .     S
H58   C81    1.08284       .     A
H59   C82    1.08302       .     S
H60   C84    1.08324       .     A
H61   C85    1.08297       .     A
H62   C87    1.08305       .     S
H63   C88    1.08324       .     S
H64   C90    1.08323       .     D
H65   C91    1.08279       .     S
C66   C89    1.48697       .     S
C66   O96    1.29695       .     S
C66   O97    1.29920       .     D
C67   C71    1.41021       .     S
C67   N94    1.37631       .     S
C67   O98    1.34914       .     A
C68   C69    1.41081       .     A
C68   N94    1.37593       .     A
C68   O99    1.34913       .     A
C69   C68    1.41081       .     A
C69   C70    1.40742       .     A
C69   C72    1.40669       .     S
C70   C69    1.40742       .     S
C70   C71    1.40736       .     A
C70   C75    1.41878       .     A
C71   C67    1.41021       .     A
C71   C70    1.40736       .     A
C71   C78    1.40684       .     S
C72   H54    1.08309       .     A
C72   C69    1.40669       .     S
C72   C73    1.39851       .     S
C73   H55    1.08327   1_655     D
C73   C72    1.39851       .     S
C73   C74    1.40686       .     S
C74   C73    1.40686       .     D
C74   C75    1.40737       .     S
C74   C79    1.41019       .     S
C75   C70    1.41878       .     A
C75   C74    1.40737       .     A
C75   C76    1.40781       .     A
C76   C75    1.40781       .     S
C76   C77    1.40675       .     A
C76   C80    1.41033       .     S
C77   H56    1.08304       .     A
C77   C76    1.40675       .     A
C77   C78    1.39850       .     S
C78   H57    1.08293       .     S
C78   C71    1.40684       .     D
C78   C77    1.39850       .     S
C79   C74    1.41019       .     D
C79   N95    1.37625       .     S
C79   O100   1.34916       .     S
C80   C76    1.41033       .     S
C80   N95    1.37612       .     A
C80   O101   1.34918       .     A
C81   H58    1.08284       .     A
C81   C82    1.40117   1_556     S
C81   C86    1.40750       .     A
C82   H59    1.08302       .     S
C82   C81    1.40117   1_554     A
C82   C83    1.40680       .     A
C83   C82    1.40680       .     S
C83   C84    1.40679       .     S
C83   C93    1.48699       .     D
C84   H60    1.08324       .     S
C84   C83    1.40679       .     S
C84   C85    1.40178       .     S
C85   H61    1.08297       .     D
C85   C84    1.40178       .     S
C85   C86    1.40771   1_554     S
C86   C81    1.40750       .     A
C86   C85    1.40771   1_556     A
C86   N95    1.45352       .     A
C87   H62    1.08305       .     A
C87   C88    1.40073       .     A
C87   C92    1.40751       .     A
C88   H63    1.08324       .     S
C88   C87    1.40073       .     S
C88   C89    1.40698       .     A
C89   C66    1.48697       .     A
C89   C88    1.40698       .     A
C89   C90    1.40680       .     A
C90   H64    1.08323       .     S
C90   C89    1.40680       .     A
C90   C91    1.40181       .     S
C91   H65    1.08279       .     S
C91   C90    1.40181       .     D
C91   C92    1.40766       .     S
C92   C87    1.40751       .     S
C92   C91    1.40766       .     D
C92   N94    1.45355       .     S
C93   C83    1.48699       .     S
C93   O102   1.29700       .     A
C93   O103   1.29927       .     A
N94   C67    1.37631       .     A
N94   C68    1.37593       .     S
N94   C92    1.45355       .     A
N95   C79    1.37625       .     S
N95   C80    1.37612       .     A
N95   C86    1.45352       .     A
O96   C66    1.29695       .     S
O96   Cu172  5.87874       .     S
O97   C66    1.29920       .     D
O97   Cu173  5.79097       .     S
O98   C67    1.34914       .     D
O99   C68    1.34913       .     S
O100  C79    1.34916       .     S
O101  C80    1.34918       .     S
O102  C93    1.29700       .     S
O102  Cu173  5.99037       .     A
O103  C93    1.29927       .     A
O103  Cu172  5.87395       .     S
H104  C143   1.08230       .     S
H105  C147   1.08363       .     S
H106  C136   1.08344       .     S
H107  C139   1.08274       .     A
H108  C148   1.11057       .     A
H109  C148   1.11381       .     S
H110  C149   1.10795       .     S
H111  C149   1.10786       .     A
H112  C150   1.11079       .     S
H113  C150   1.10997       .     A
H114  C150   1.11114       .     S
H115  C151   1.11109       .     S
H116  C151   1.11571       .     S
H117  C152   1.10837       .     S
H118  C152   1.11085       .     S
H119  C153   1.11085       .     S
H120  C153   1.11061       .     S
H121  C153   1.11100       .     S
H122  C154   1.11061       .     S
H123  C154   1.11176       .     S
H124  C155   1.10951       .     A
H125  C155   1.11122       .     A
H126  C156   1.11080       .     A
H127  C156   1.11030       .     A
H128  C156   1.11082       .     A
H129  C157   1.10853       .     A
H130  C157   1.11168       .     S
H131  C157   1.11159       .     S
C132  C141   1.47679       .     S
C132  C143   1.40418       .     S
C132  C147   1.40188       .     S
C133  C140   1.47901   1_545     S
C133  N159   1.35672       .     S
C133  N160   1.35835       .     S
C134  C145   1.47316   1_455     S
C134  N158   1.35442       .     S
C134  N161   1.35792       .     S
C135  C136   1.40616   1_545     S
C135  C140   1.41251   1_545     S
C135  O168   1.38685       .     S
C136  H106   1.08344       .     A
C136  C135   1.40616   1_565     A
C136  C137   1.40375       .     S
C137  C136   1.40375       .     S
C137  C138   1.41111       .     S
C137  C142   1.47593       .     S
C138  C137   1.41111       .     S
C138  C139   1.39592       .     A
C138  O169   1.38386       .     A
C139  H107   1.08274       .     S
C139  C138   1.39592       .     S
C139  C140   1.40181       .     S
C140  C133   1.47900   1_565     S
C140  C135   1.41251   1_565     S
C140  C139   1.40181       .     A
C141  C132   1.47679       .     S
C141  O162   1.30528       .     A
C141  O163   1.30248       .     S
C142  C137   1.47593       .     D
C142  O164   1.31019       .     S
C142  O165   1.29604       .     D
C143  H104   1.08230       .     S
C143  C132   1.40418       .     S
C143  C144   1.40158       .     S
C144  C143   1.40158       .     S
C144  C145   1.41794       .     A
C144  O166   1.38654   1_655     A
C145  C134   1.47316   1_655     S
C145  C144   1.41794       .     S
C145  C146   1.41408       .     S
C146  C145   1.41408       .     S
C146  C147   1.39345       .     A
C146  O167   1.38543       .     A
C147  H105   1.08363       .     S
C147  C132   1.40188       .     S
C147  C146   1.39345       .     A
C148  H108   1.11057       .     S
C148  H109   1.11381       .     A
C148  C149   1.52583       .     S
C148  O166   1.41630       .     S
C149  H110   1.10795       .     S
C149  H111   1.10786       .     S
C149  C148   1.52583       .     S
C149  C150   1.52646       .     S
C150  H112   1.11079       .     S
C150  H113   1.10997       .     S
C150  H114   1.11114       .     S
C150  C149   1.52646       .     S
C151  H115   1.11109       .     A
C151  H116   1.11571       .     A
C151  C152   1.53374       .     A
C151  O167   1.41757       .     A
C152  H117   1.10837       .     A
C152  H118   1.11085       .     A
C152  C151   1.53374       .     S
C152  C153   1.52577       .     S
C153  H119   1.11085       .     S
C153  H120   1.11061       .     S
C153  H121   1.11100       .     S
C153  C152   1.52577       .     S
C154  H122   1.11061       .     S
C154  H123   1.11176       .     S
C154  C155   1.53644       .     S
C154  O168   1.41778       .     S
C155  H124   1.10951       .     S
C155  H125   1.11122       .     S
C155  C154   1.53644       .     S
C155  C156   1.52545       .     S
C156  H126   1.11080       .     A
C156  H127   1.11030       .     A
C156  H128   1.11082       .     S
C156  C155   1.52545       .     S
C157  H129   1.10853       .     S
C157  H130   1.11168       .     S
C157  H131   1.11159       .     S
C157  O169   1.41197       .     A
N158  C134   1.35442       .     A
N158  N159   1.32723       .     S
N159  C133   1.35672       .     S
N159  N158   1.32723       .     S
N160  C133   1.35835       .     S
N160  N161   1.33234       .     S
N161  C134   1.35792       .     A
N161  N160   1.33234       .     S
O162  C141   1.30528       .     A
O162  Cu173  1.82695       .     S
O163  C141   1.30248       .     D
O163  Cu172  2.57498       .     S
O164  C142   1.31019       .     S
O164  Cu170  1.93384       .     S
O165  C142   1.29604       .     S
O165  Cu171  2.51958       .     S
O166  C144   1.38654   1_455     D
O166  C148   1.41630       .     S
O167  C146   1.38543       .     S
O167  C151   1.41757       .     S
O168  C135   1.38685       .     A
O168  C154   1.41778       .     A
O169  C138   1.38386       .     A
O169  C157   1.41197       .     S
Cu170 O49    1.83466       .     A
Cu170 O164   1.93384       .     S
Cu170 Cu171  2.67538       .     A
Cu170 O216   4.48001   1_565     A
Cu170 O223   4.42328       .     S
Cu170 N246   2.07182       .     S
Cu171 O50    2.25565       .     D
Cu171 O165   2.51958       .     S
Cu171 Cu170  2.67538       .     S
Cu171 O217   4.42099       .     S
Cu171 O222   4.46535       .     D
Cu171 N233   2.07884       .     S
Cu172 O52    2.50768       .     S
Cu172 O96    5.87874       .     A
Cu172 O103   5.87395       .     A
Cu172 O163   2.57498       .     A
Cu172 Cu173  2.67347       .     A
Cu172 N247   2.30559       .     A
Cu173 O51    1.62846       .     A
Cu173 O97    5.79097       .     S
Cu173 O102   5.99037       .     S
Cu173 O162   1.82695       .     A
Cu173 Cu172  2.67347       .     A
Cu173 N232   2.17592       .     A
H174  C192   1.08309       .     A
H175  C193   1.08327       .     S
H176  C197   1.08303   1_545     A
H177  C198   1.08293       .     S
H178  C201   1.08283       .     S
H179  C202   1.08302       .     D
H180  C204   1.08323       .     S
H181  C205   1.08297       .     S
H182  C207   1.08305       .     D
H183  C208   1.08323       .     S
H184  C210   1.08323       .     S
H185  C211   1.08279       .     A
C186  C209   1.48697       .     A
C186  O216   1.29695   1_565     A
C186  O217   1.29920       .     S
C187  C191   1.41021       .     A
C187  N214   1.37631       .     S
C187  O218   1.34914   1_565     A
C188  C189   1.41081       .     A
C188  N214   1.37592       .     S
C188  O219   1.34913       .     S
C189  C188   1.41081       .     D
C189  C190   1.40742       .     S
C189  C192   1.40669       .     D
C190  C189   1.40742       .     S
C190  C191   1.40736       .     S
C190  C195   1.41878       .     S
C191  C187   1.41021       .     A
C191  C190   1.40736       .     A
C191  C198   1.40684   1_565     A
C192  H174   1.08309       .     S
C192  C189   1.40669       .     A
C192  C193   1.39851       .     S
C193  H175   1.08327       .     A
C193  C192   1.39851       .     A
C193  C194   1.40686       .     S
C194  C193   1.40686       .     S
C194  C195   1.40737       .     D
C194  C199   1.41018       .     S
C195  C190   1.41878       .     S
C195  C194   1.40737       .     S
C195  C196   1.40781       .     D
C196  C195   1.40781       .     S
C196  C197   1.40675       .     S
C196  C200   1.41033       .     A
C197  H176   1.08303   1_565     A
C197  C196   1.40675       .     A
C197  C198   1.39851   1_565     A
C198  H177   1.08293       .     A
C198  C191   1.40684   1_545     A
C198  C197   1.39851   1_545     S
C199  C194   1.41018       .     S
C199  N215   1.37625       .     A
C199  O220   1.34916       .     A
C200  C196   1.41033       .     A
C200  N215   1.37613       .     A
C200  O221   1.34918       .     S
C201  H178   1.08283       .     A
C201  C202   1.40118       .     S
C201  C206   1.40750       .     S
C202  H179   1.08302       .     D
C202  C201   1.40118       .     S
C202  C203   1.40680       .     S
C203  C202   1.40680       .     D
C203  C204   1.40679       .     S
C203  C213   1.48699       .     S
C204  H180   1.08323       .     A
C204  C203   1.40679       .     A
C204  C205   1.40178       .     A
C205  H181   1.08297       .     S
C205  C204   1.40178       .     A
C205  C206   1.40771       .     S
C206  C201   1.40750       .     A
C206  C205   1.40771       .     A
C206  N215   1.45351       .     S
C207  H182   1.08305       .     S
C207  C208   1.40073   1_556     D
C207  C212   1.40751       .     S
C208  H183   1.08323       .     S
C208  C207   1.40073   1_554     D
C208  C209   1.40698       .     S
C209  C186   1.48697       .     S
C209  C208   1.40698       .     S
C209  C210   1.40680       .     D
C210  H184   1.08323       .     T
C210  C209   1.40680       .     T
C210  C211   1.40181       .     S
C211  H185   1.08279       .     S
C211  C210   1.40181       .     S
C211  C212   1.40766   1_554     D
C212  C207   1.40751       .     S
C212  C211   1.40766   1_556     S
C212  N214   1.45355       .     D
C213  C203   1.48699       .     S
C213  O222   1.29700       .     S
C213  O223   1.29927       .     S
N214  C187   1.37631       .     D
N214  C188   1.37592       .     T
N214  C212   1.45355       .     T
N215  C199   1.37625       .     S
N215  C200   1.37613       .     S
N215  C206   1.45351       .     S
O216  Cu170  4.48001   1_545     D
O216  C186   1.29695   1_545     S
O217  Cu171  4.42099       .     S
O217  C186   1.29920       .     D
O218  C187   1.34914   1_545     S
O219  C188   1.34913       .     S
O220  C199   1.34916       .     S
O221  C200   1.34918       .     D
O222  Cu171  4.46535       .     T
O222  C213   1.29700       .     T
O223  Cu170  4.42328       .     S
O223  C213   1.29927       .     S
H224  O235   1.01397       .     S
H225  O237   1.01413       .     D
C226  C227   1.47376       .     S
C226  N232   1.16659   1_455     S
C227  C226   1.47376       .     D
C227  C228   1.37814       .     S
C227  C230   1.49513       .     S
C228  C227   1.37814       .     S
C228  C229   1.49553       .     D
C228  C231   1.47380       .     T
C229  C228   1.49553       .     T
C229  O234   1.22392       .     S
C229  O235   1.39883   1_455     S
C230  C227   1.49513       .     S
C230  O236   1.22371       .     D
C230  O237   1.39881       .     S
C231  C228   1.47380       .     S
C231  N233   1.16646       .     S
N232  Cu173  2.17592       .     S
N232  C226   1.16658   1_655     S
N233  Cu171  2.07884       .     S
N233  C231   1.16646       .     S
O234  C229   1.22392       .     S
O235  H224   1.01397       .     S
O235  C229   1.39883   1_655     S
O236  C230   1.22371       .     S
O237  H225   1.01413       .     S
O237  C230   1.39881       .     S
H238  O249   1.01397       .     S
H239  O251   1.01343       .     S
C240  C241   1.37635       .     S
C240  C243   1.47388       .     S
C240  C245   1.49146       .     S
C241  C240   1.37635       .     S
C241  C242   1.47503       .     S
C241  C244   1.49407       .     S
C242  C241   1.47503       .     S
C242  N247   1.16675       .     S
C243  C240   1.47388       .     S
C243  N246   1.16682   1_545     S
C244  C241   1.49407       .     S
C244  O248   1.22366       .     S
C244  O249   1.39889       .     S
C245  C240   1.49146       .     S
C245  O250   1.22364   1_545     S
C245  O251   1.39888       .     S
N246  Cu170  2.07182       .     S
N246  C243   1.16682   1_565     S
N247  Cu172  2.30559       .     S
N247  C242   1.16675       .     S
O248  C244   1.22366       .     S
O249  H238   1.01397       .     S
O249  C244   1.39889       .     S
O250  C245   1.22364   1_565     S
O251  H239   1.01343       .     S
O251  C245   1.39888       .     S
