data_I
_chemical_name_common  '/home/sibivarshan_m7/MOFDiff/MOFDiff/results/nh3_target_12.0mmol/cif/sample_5'
_cell_length_a 11.22537
_cell_length_b 12.53059
_cell_length_c 12.84100
_cell_angle_alpha 94.08794
_cell_angle_beta  89.86751
_cell_angle_gamma 91.28719
_space_group_name_H-M_alt      'P 1'


loop_
_space_group_symop_operation_xyz
  'x, y, z' 

loop_
_atom_site_label
_atom_site_fract_x
_atom_site_fract_y
_atom_site_fract_z
_atom_site_type_symbol
Zn0   0.7237734 0.8128581 0.12735707    Zn
Zn1   0.87706923 0.9494879 0.28308553    Zn
C2    0.93472177 0.9600333 0.99226314     C
C3    0.71319515 0.837481 0.5229455     C
C4    0.897065 0.9141911 0.8864716     C
C5    0.8917133 0.76442575 0.7537817     C
C6    0.9232235 0.8079326 0.8540727     C
C7    0.835412 0.9757048  0.81723     C
C8    0.78975815 0.9283131 0.72127134     C
C9    0.82441807 0.8237007 0.68620133     C
C10   0.7900729 0.78098744 0.58488464     C
C11   0.66651523 0.93399847 0.5652042     C
C12   0.7074542 0.9810694 0.6607691     C
C13   0.6757961 0.7934589 0.41707048     C
Cl14  0.5477884 0.99360144 0.50453675    Cl
Cl15  0.828007 0.11415076 0.84632945    Cl
O16   0.02453971 0.029855013 0.9965452     O
O17   0.87359446 0.92858535 0.07318807     O
O18   0.7334883 0.82864577 0.33611557     O
O19   0.5830138 0.72771806 0.41249296     O
F20   0.82998806 0.68454057 0.54651076     F
F21   0.92393726 0.6628196 0.72474784     F
F22   0.65805745 0.07441759 0.6971379     F
F23   0.98364556 0.747163 0.91853935     F
C24   0.8555664 0.61640924 0.25933987     C
C25   0.7499063 0.14292906 0.14971662     C
C26   0.7181997 0.58395106 0.1160278     C
C27   0.8882359 0.17531589 0.29232493     C
C28   0.8468064 0.72710365 0.24924974     C
C29   0.75861865 0.03223268 0.15981822     C
C30   0.710704 0.695278 0.10937945     C
C31   0.89573467 0.06398301 0.29893237     C
C32   0.79098815 0.5433378 0.19201097     C
C33   0.81494886 0.21597512 0.2167266     C
C34   0.7994536 0.42778224 0.20072922     C
C35   0.80651134 0.33153307 0.20800973     C
N36   0.77465767 0.7648906 0.17539859     N
N37   0.8311769 0.9944024 0.2333487     N
F38   0.9269565 0.58094066 0.33413336     F
F39   0.6781657 0.1784397 0.07520558     F
F40   0.65463346 0.5163928 0.04879005     F
F41   0.95232654 0.24283442 0.35920647     F
F42   0.9111519 0.7967941 0.3134579     F
F43   0.693876 0.9625691 0.09590492     F
F44   0.6391664 0.7336063 0.03649161     F
F45   0.9680068 0.025626343 0.37125316     F
C46   0.05829544 0.79044515 0.24940336     C
C47   0.54823655 0.97344464 0.15716635     C
C48   0.4426491 0.90915424 0.1385066     C
C49   0.16674986 0.85218596 0.27097318     C
C50   0.36738756 0.8997568 0.21848875     C
C51   0.25787625 0.83853006 0.20389107     C
O52   0.06829038 0.7028937 0.19583875     O
O53   0.53748226 0.0598197 0.21255763     O
O54   0.95818204 0.8292096 0.27328083     O
O55   0.64759076 0.9335037 0.1351154     O
F56   0.24832886 0.769608 0.11708292     F
F57   0.39398888 0.94542265 0.31558776     F
F58   0.17105953 0.92669606 0.3534158     F
F59   0.4240519 0.8592803 0.04205851     F
loop_
_geom_bond_atom_site_label_1
_geom_bond_atom_site_label_2
_geom_bond_distance
_geom_bond_site_symmetry_2
_ccdc_geom_bond_type
Zn0   Zn1    3.04738       .     S
Zn0   O16    4.67188   1_664     S
Zn0   O17    2.33324       .     D
Zn0   N36    1.06678       .     S
Zn0   O53    3.86573   1_565     S
Zn0   O55    1.75011       .     S
Zn1   Zn0    3.04738       .     S
Zn1   O18    2.32091       .     A
Zn1   O19    4.64762       .     A
Zn1   N37    1.02754       .     A
Zn1   O52    3.89923   1_655     A
Zn1   O54    1.77496       .     A
C2    C4     1.49485       .     A
C2    O16    1.31864   1_665     S
C2    O17    1.32246   1_556     A
C3    C10    1.41044       .     S
C3    C11    1.40190       .     A
C3    C13    1.48802       .     A
C4    C2     1.49485       .     A
C4    C6     1.40363       .     S
C4    C7     1.41003       .     A
C5    C6     1.40506       .     S
C5    C9     1.41264       .     S
C5    F21    1.35766       .     D
C6    C4     1.40363       .     S
C6    C5     1.40506       .     D
C6    F23    1.35678       .     S
C7    C4     1.41003       .     S
C7    C8     1.42075       .     S
C7    Cl15   1.75215   1_565     S
C8    C7     1.42075       .     A
C8    C9     1.41790       .     A
C8    C12    1.41356       .     A
C9    C5     1.41264       .     A
C9    C8     1.41790       .     A
C9    C10    1.42179       .     A
C10   C3     1.41044       .     S
C10   C9     1.42179       .     A
C10   F20    1.35740       .     S
C11   C3     1.40190       .     A
C11   C12    1.39722       .     A
C11   Cl14   1.75311       .     A
C12   C8     1.41356       .     S
C12   C11    1.39722       .     A
C12   F22    1.35788   1_565     S
C13   C3     1.48802       .     S
C13   O18    1.32056       .     D
C13   O19    1.31211       .     S
Cl14  C11    1.75311       .     S
Cl15  C7     1.75215   1_545     S
O16   Zn0    4.67188   1_446     S
O16   C2     1.31864   1_445     S
O17   Zn0    2.33324       .     A
O17   C2     1.32246   1_554     A
O18   Zn1    2.32091       .     A
O18   C13    1.32056       .     A
O19   Zn1    4.64762       .     A
O19   C13    1.31211       .     A
F20   C10    1.35740       .     S
F21   C5     1.35766       .     A
F22   C12    1.35788   1_545     A
F23   C6     1.35678       .     T
C24   C28    1.40791       .     S
C24   C32    1.40413       .     A
C24   F38    1.35741       .     A
C25   C29    1.40791       .     A
C25   C33    1.40424       .     S
C25   F39    1.35733       .     A
C26   C30    1.40807       .     S
C26   C32    1.40419       .     S
C26   F40    1.35748       .     S
C27   C31    1.40808       .     S
C27   C33    1.40420       .     S
C27   F41    1.35753       .     S
C28   C24    1.40791       .     S
C28   N36    1.36537       .     A
C28   F42    1.35494       .     A
C29   C25    1.40791       .     A
C29   N37    1.36541   1_545     A
C29   F43    1.35494   1_545     A
C30   C26    1.40807       .     A
C30   N36    1.36536       .     S
C30   F44    1.35515       .     A
C31   C27    1.40808       .     A
C31   N37    1.36541   1_545     T
C31   F45    1.35509       .     S
C32   C24    1.40413       .     A
C32   C26    1.40419       .     A
C32   C34    1.46545       .     A
C33   C25    1.40424       .     S
C33   C27    1.40420       .     A
C33   C35    1.46545       .     S
C34   C32    1.46545       .     S
C34   C35    1.22065       .     S
C35   C33    1.46545       .     D
C35   C34    1.22065       .     S
N36   Zn0    1.06678       .     S
N36   C28    1.36537       .     S
N36   C30    1.36536       .     D
N37   Zn1    1.02754       .     S
N37   C29    1.36541   1_565     S
N37   C31    1.36541   1_565     S
F38   C24    1.35741       .     D
F39   C25    1.35733       .     S
F40   C26    1.35748       .     S
F41   C27    1.35753       .     D
F42   C28    1.35494       .     S
F43   C29    1.35494   1_565     D
F44   C30    1.35515       .     S
F45   C31    1.35509       .     S
C46   C49    1.44434       .     S
C46   O52    1.25970       .     D
C46   O54    1.26278   1_455     S
C47   C48    1.42903       .     S
C47   O53    1.26002   1_565     S
C47   O55    1.25616       .     D
C48   C47    1.42903       .     S
C48   C50    1.33836       .     S
C48   F59    1.36124       .     D
C49   C46    1.44434       .     S
C49   C51    1.34181       .     S
C49   F58    1.36091       .     S
C50   C48    1.33836       .     S
C50   C51    1.43983       .     S
C50   F57    1.36512       .     S
C51   C49    1.34181       .     S
C51   C50    1.43983       .     S
C51   F56    1.36347       .     S
O52   Zn1    3.89923   1_455     S
O52   C46    1.25970       .     S
O53   Zn0    3.86573   1_545     S
O53   C47    1.26002   1_545     S
O54   Zn1    1.77496       .     S
O54   C46    1.26278   1_655     S
O55   Zn0    1.75011       .     S
O55   C47    1.25616       .     S
F56   C51    1.36347       .     S
F57   C50    1.36512       .     S
F58   C49    1.36091       .     S
F59   C48    1.36124       .     S
