data_I
_chemical_name_common  '/home/sibivarshan_m7/MOFDiff/MOFDiff/results/nh3_target_12.0mmol/cif/sample_9'
_cell_length_a 15.46970
_cell_length_b 15.51998
_cell_length_c 15.78198
_cell_angle_alpha 104.06806
_cell_angle_beta  108.88145
_cell_angle_gamma 87.89742
_space_group_name_H-M_alt      'P 1'


loop_
_space_group_symop_operation_xyz
  'x, y, z' 

loop_
_atom_site_label
_atom_site_fract_x
_atom_site_fract_y
_atom_site_fract_z
_atom_site_type_symbol
Zn0   0.04871416 0.10905667 0.5348706    Zn
Zn1   0.8720288 0.21302459 0.55067664    Zn
Zn2   0.9126351 0.036491632 0.61726916    Zn
Zn3   0.039782763 0.20977277 0.73021346    Zn
O4    0.96828717 0.14208233 0.6082667     O
H5    0.19768286 0.07550309 0.9794409     H
H6    0.98524576 0.910406 0.040124897     H
H7    0.10840523 0.9581677 0.99669707     H
H8    0.045672297 0.27498266 0.099545956     H
H9    0.73870367 0.20665747 0.24207231     H
H10   0.94184595 0.3021439 0.1583656     H
H11   0.82213396 0.32875165 0.22632977     H
H12   0.8578685 0.94108623 0.09806556     H
C13   0.17589152 0.2515096 0.019406663     C
C14   0.093556166 0.0268782 0.02054905     C
C15   0.12762868 0.1830406 0.040506106     C
C16   0.78949404 0.19111088 0.20788494     C
C17   0.8375141 0.26089296 0.19986777     C
C18   0.9066779 0.24445902 0.1603459     C
C19   0.9292638 0.15664396 0.1265095     C
C20   0.8770365 0.08468818 0.13193966     C
C21   0.002784729 0.13805056 0.08874519     C
C22   0.022342086 0.047939733 0.057957042     C
C23   0.9699491 0.97908247 0.06316158     C
C24   0.8974012 0.9969533 0.097636044     C
C25   0.057519436 0.20524845 0.07976717     C
C26   0.14493406 0.09366025 0.011119608     C
C27   0.80730027 0.1026201 0.17413466     C
C28   0.7594436 0.032970183 0.19524275     C
O29   0.15216112 0.25026393 0.93029654     O
O30   0.238783 0.3050669 0.0895827     O
O31   0.6958201 0.97992224 0.12546031     O
O32   0.7822434 0.034624767 0.28439876     O
H33   0.102548 0.40387392 0.4725593     H
H34   0.089656234 0.54315984 0.42427975     H
H35   0.97876835 0.5133408 0.6779277     H
H36   0.8320987 0.8825741 0.7468466     H
H37   0.9139748 0.61897033 0.7358864     H
H38   0.83988345 0.7453794 0.7979986     H
H39   0.94419724 0.80676895 0.4871993     H
H40   0.025587559 0.68734103 0.4261731     H
C41   0.00355649 0.5243967 0.6248611     C
C42   0.07433891 0.46031317 0.5087888     C
C43   0.8977468 0.83096033 0.64368534     C
C44   0.86698204 0.7481343 0.7434181     C
C45   0.9102141 0.6754138 0.70668924     C
C46   0.029052496 0.36503994 0.5914821     C
C47   0.9059594 0.9192657 0.6265387     C
C48   0.06597078 0.5390753 0.48081937     C
C49   0.041788936 0.4526559 0.57952946     C
C50   0.9458475 0.6770962 0.6349244     C
C51   0.861561 0.8255226 0.7131065     C
C52   0.9351036 0.7547412 0.6003084     C
C53   0.9910344 0.60418123 0.595622     C
C54   0.022307992 0.6098706 0.5215408     C
C55   0.0056391954 0.68413484 0.485216     C
C56   0.9606476 0.7541113 0.52230906     C
O57   0.97493243 0.3096439 0.5234903     O
O58   0.8533163 0.98079926 0.64760005     O
O59   0.06742358 0.34512883 0.66870326     O
O60   0.9720206 0.93682283 0.59984183     O
H61   0.51968753 0.92545307 0.52170897     H
H62   0.37878183 0.89323944 0.54558665     H
H63   0.3366857 0.21471994 0.6528964     H
H64   0.44566154 0.3017607 0.6822439     H
H65   0.5590938 0.4012294 0.68378526     H
H66   0.63256854 0.028611159 0.52475035     H
H67   0.7286987 0.42485163 0.6973387     H
H68   0.2371304 0.94513905 0.57343185     H
C69   0.18942669 0.11482384 0.608513     C
C70   0.37250805 0.9638511 0.57104725     C
C71   0.2809286 0.08400638 0.6167983     C
C72   0.6416158 0.29980505 0.6336224     C
C73   0.56629133 0.3304756 0.6601396     C
C74   0.49952286 0.27184018 0.657424     C
C75   0.7441892 0.17181258 0.60981584     C
C76   0.50293577 0.17937134 0.62287986     C
C77   0.5795431 0.14690019 0.5954476     C
C78   0.43247148 0.11806297 0.6144406     C
C79   0.44097373 0.02552694 0.58066666     C
C80   0.5147906 0.99551094 0.5512693     C
C81   0.58107036 0.055308945 0.5554038     C
C82   0.3512321 0.14569421 0.63337827     C
C83   0.29233837 0.9931089 0.5877674     C
C84   0.6526712 0.20660616 0.6075415     C
C85   0.70706606 0.36889806 0.63737434     C
O86   0.73137474 0.36794457 0.5708785     O
O87   0.12888184 0.09241794 0.5294836     O
O88   0.8024295 0.21881007 0.5954045     O
O89   0.17081682 0.16639039 0.67639107     O
O90   0.767836 0.098854855 0.6358858     O
loop_
_geom_bond_atom_site_label_1
_geom_bond_atom_site_label_2
_geom_bond_distance
_geom_bond_site_symmetry_2
_ccdc_geom_bond_type
Zn0   O4     1.93643   1_455     S
Zn0   O31    6.87353   1_445     S
Zn0   O60    3.45787   1_445     S
Zn0   O87    1.28297       .     S
Zn1   O4     1.93544       .     S
Zn1   O32    4.25478       .     S
Zn1   O57    2.42833       .     S
Zn1   O88    1.45588       .     S
Zn2   O4     1.93463       .     S
Zn2   O30    7.77757   1_656     D
Zn2   O58    1.53686   1_545     S
Zn2   O90    2.48381       .     S
Zn3   O4     1.93792   1_455     A
Zn3   O29    2.99179       .     A
Zn3   O59    2.61996       .     S
Zn3   O89    2.45358       .     A
O4    Zn0    1.93644   1_655     A
O4    Zn1    1.93544       .     S
O4    Zn2    1.93463       .     A
O4    Zn3    1.93792   1_655     A
H5    C26    1.08347   1_556     A
H6    C23    1.08306       .     S
H7    C14    1.08374   1_566     A
H8    C25    1.07730       .     A
H9    C16    1.07882       .     S
H10   C18    1.07648       .     A
H11   C17    1.08272       .     A
H12   C24    1.08180       .     A
C13   C15    1.47941       .     S
C13   O29    1.32894   1_554     A
C13   O30    1.33359       .     A
C14   H7     1.08374   1_544     S
C14   C22    1.40348       .     A
C14   C26    1.39287       .     S
C15   C13    1.47941       .     A
C15   C25    1.40808       .     D
C15   C26    1.39692       .     S
C16   H9     1.07882       .     S
C16   C17    1.38826       .     S
C16   C27    1.39904       .     D
C17   H11    1.08272       .     S
C17   C16    1.38826       .     S
C17   C18    1.39048       .     A
C18   H10    1.07648       .     A
C18   C17    1.39048       .     S
C18   C19    1.41305       .     A
C19   C18    1.41305       .     A
C19   C20    1.43694       .     S
C19   C21    1.43634   1_655     A
C20   C19    1.43694       .     A
C20   C24    1.40248   1_545     A
C20   C27    1.42743       .     S
C21   C19    1.43634   1_455     A
C21   C22    1.42029       .     A
C21   C25    1.42793       .     S
C22   C14    1.40348       .     A
C22   C21    1.42029       .     A
C22   C23    1.39822   1_445     A
C23   H6     1.08306       .     S
C23   C22    1.39822   1_665     A
C23   C24    1.38978       .     A
C24   H12    1.08180       .     S
C24   C20    1.40248   1_565     A
C24   C23    1.38978       .     S
C25   H8     1.07730       .     A
C25   C15    1.40808       .     D
C25   C21    1.42793       .     S
C26   H5     1.08347   1_554     S
C26   C14    1.39287       .     D
C26   C15    1.39692       .     S
C27   C16    1.39904       .     S
C27   C20    1.42743       .     S
C27   C28    1.49029       .     A
C28   C27    1.49029       .     A
C28   O31    1.33287   1_545     A
C28   O32    1.32920       .     S
O29   Zn3    2.99179       .     A
O29   C13    1.32894   1_556     S
O30   Zn2    7.77757   1_454     A
O30   C13    1.33359       .     S
O31   Zn0    6.87353   1_665     A
O31   C28    1.33287   1_565     A
O32   Zn1    4.25478       .     A
O32   C28    1.32920       .     A
H33   C42    1.08378       .     A
H34   C48    1.08411       .     A
H35   C41    1.07723   1_655     S
H36   C51    1.08329       .     S
H37   C45    1.07621       .     A
H38   C44    1.08281       .     A
H39   C56    1.07392       .     A
H40   C55    1.08433       .     A
C41   H35    1.07723   1_455     S
C41   C49    1.39270       .     A
C41   C53    1.40928   1_455     S
C42   H33    1.08378       .     S
C42   C48    1.38548       .     D
C42   C49    1.39529       .     S
C43   C47    1.47748       .     D
C43   C51    1.40221       .     S
C43   C52    1.41920       .     S
C44   H38    1.08281       .     S
C44   C45    1.39088       .     A
C44   C51    1.38723       .     A
C45   H37    1.07621       .     A
C45   C44    1.39088       .     S
C45   C50    1.41662       .     A
C46   C49    1.44633       .     S
C46   O57    1.27059   1_455     A
C46   O59    1.27847       .     S
C47   C43    1.47748       .     A
C47   O58    1.28434       .     A
C47   O60    1.28494       .     A
C48   H34    1.08411       .     A
C48   C42    1.38548       .     A
C48   C54    1.39989       .     A
C49   C41    1.39270       .     S
C49   C42    1.39529       .     S
C49   C46    1.44633       .     A
C50   C45    1.41662       .     A
C50   C52    1.42296       .     A
C50   C53    1.42665       .     A
C51   H36    1.08329       .     S
C51   C43    1.40221       .     A
C51   C44    1.38723       .     S
C52   C43    1.41920       .     S
C52   C50    1.42296       .     D
C52   C56    1.40722       .     S
C53   C41    1.40928   1_655     D
C53   C50    1.42665       .     D
C53   C54    1.42414   1_655     S
C54   C48    1.39989       .     S
C54   C53    1.42414   1_455     S
C54   C55    1.38828       .     S
C55   H40    1.08433       .     A
C55   C54    1.38828       .     A
C55   C56    1.38049   1_455     S
C56   H39    1.07392       .     A
C56   C52    1.40722       .     S
C56   C55    1.38049   1_655     A
O57   Zn1    2.42833       .     A
O57   C46    1.27059   1_655     A
O58   Zn2    1.53686   1_565     A
O58   C47    1.28434       .     S
O59   Zn3    2.61996       .     A
O59   C46    1.27847       .     S
O60   Zn0    3.45787   1_665     A
O60   C47    1.28494       .     A
H61   C80    1.08436       .     A
H62   C70    1.08407       .     A
H63   C82    1.07699       .     A
H64   C74    1.07599       .     D
H65   C73    1.08452       .     S
H66   C81    1.08081       .     A
H67   C85    1.08560       .     S
H68   C83    1.08378       .     A
C69   C71    1.45274       .     A
C69   O87    1.26915       .     S
C69   O89    1.27940       .     S
C70   H62    1.08407       .     S
C70   C79    1.40027   1_565     D
C70   C83    1.38786       .     D
C71   C69    1.45274       .     S
C71   C82    1.39223       .     S
C71   C83    1.39681   1_545     S
C72   C73    1.39197       .     S
C72   C84    1.42438       .     A
C72   C85    1.47937       .     A
C73   H65    1.08452       .     S
C73   C72    1.39197       .     A
C73   C74    1.38499       .     S
C74   H64    1.07599       .     A
C74   C73    1.38499       .     A
C74   C76    1.41148       .     A
C75   C84    1.48919       .     A
C75   O88    1.28724       .     S
C75   O90    1.29764       .     A
C76   C74    1.41148       .     S
C76   C77    1.42409       .     A
C76   C78    1.42544       .     A
C77   C76    1.42409       .     A
C77   C81    1.41105       .     A
C77   C84    1.42339       .     A
C78   C76    1.42544       .     D
C78   C79    1.42244       .     S
C78   C82    1.41205       .     A
C79   C70    1.40027   1_545     S
C79   C78    1.42244       .     A
C79   C80    1.39106   1_545     A
C80   H61    1.08436       .     S
C80   C79    1.39106   1_565     S
C80   C81    1.38345   1_565     S
C81   H66    1.08081       .     S
C81   C77    1.41105       .     S
C81   C80    1.38345   1_545     S
C82   H63    1.07699       .     S
C82   C71    1.39223       .     S
C82   C78    1.41205       .     S
C83   H68    1.08378       .     S
C83   C70    1.38786       .     S
C83   C71    1.39681   1_565     S
C84   C72    1.42438       .     S
C84   C75    1.48919       .     S
C84   C77    1.42339       .     S
C85   H67    1.08560       .     S
C85   C72    1.47937       .     S
C85   O86    1.22082       .     S
O86   C85    1.22082       .     S
O87   Zn0    1.28297       .     S
O87   C69    1.26915       .     S
O88   Zn1    1.45588       .     S
O88   C75    1.28724       .     S
O89   Zn3    2.45358       .     S
O89   C69    1.27940       .     S
O90   Zn2    2.48381       .     S
O90   C75    1.29764       .     S
