data_I
_chemical_name_common  '/home/sibivarshan_m7/MOFDiff/MOFDiff/results/nh3_target_12.0mmol/cif/sample_12'
_cell_length_a 12.43903
_cell_length_b 13.21150
_cell_length_c 17.87029
_cell_angle_alpha 89.51623
_cell_angle_beta  89.23712
_cell_angle_gamma 88.14001
_space_group_name_H-M_alt      'P 1'


loop_
_space_group_symop_operation_xyz
  'x, y, z' 

loop_
_atom_site_label
_atom_site_fract_x
_atom_site_fract_y
_atom_site_fract_z
_atom_site_type_symbol
C0    0.2441786 0.022105832 0.6542501     C
C1    0.8486319 0.34249073 0.66027546     C
C2    0.9387561 0.3969335 0.6759443     C
C3    0.03827184 0.34642634 0.67889506     C
C4    0.04725066 0.24072136 0.66600645     C
C5    0.9531129 0.18912439 0.65037113     C
C6    0.14514942 0.18441972 0.6676905     C
C7    0.14736605 0.07834784 0.65351146     C
C8    0.05306248 0.029719938 0.6386451     C
C9    0.9570644 0.0847644 0.63720447     C
C10   0.24194099 0.22920892 0.6827222     C
C11   0.3374322 0.0715126 0.6692058     C
H12   0.24924283 0.3083584 0.69445086     H
H13   0.7704904 0.38063544 0.6578339     H
H14   0.105790734 0.39218482 0.6911844     H
H15   0.9316274 0.47763053 0.6857448     H
H16   0.8871199 0.043697853 0.6254427     H
H17   0.4139286 0.030184455 0.67019254     H
H18   0.053423077 0.94901437 0.6279965     H
H19   0.24755701 0.94145805 0.64340395     H
N20   0.33268613 0.172283 0.6827154     N
N21   0.8581344 0.24127991 0.64805424     N
Zn22  0.47984672 0.1771245 0.652594    Zn
Zn23  0.7057886 0.24623346 0.6806571    Zn
H24   0.7383423 0.298216 0.2884975     H
H25   0.41919068 0.3085312 0.056986313     H
H26   0.7402101 0.1799146 0.03187097     H
H27   0.4700873 0.099939525 0.28445876     H
H28   0.75392246 0.27105576 0.42392766     H
H29   0.40642685 0.32681364 0.92104805     H
H30   0.7266794 0.19567193 0.8960302     H
H31   0.4868463 0.07032279 0.4194546     H
C32   0.59384096 0.21731518 0.1989091     C
C33   0.5871248 0.2292734 0.1325602     C
C34   0.5540357 0.2625417 0.81562823     C
C35   0.6284808 0.1557906 0.5130768     C
C36   0.68287295 0.24905916 0.31715587     C
C37   0.48605546 0.28293797 0.021742405     C
C38   0.66670907 0.21095459 0.007650215     C
C39   0.5316721 0.13777925 0.31494612     C
C40   0.69189435 0.23315232 0.39403424     C
C41   0.4781278 0.29147092 0.94416296     C
C42   0.6587158 0.21945764 0.9301822     C
C43   0.54062414 0.12178469 0.39182886     C
C44   0.6200558 0.17024647 0.43199492     C
C45   0.5633681 0.25716472 0.89757836     C
C46   0.60247654 0.20173274 0.27777797     C
C47    0.57993 0.24158815 0.053325832     C
O48   0.6426952 0.27184215 0.7755388     O
O49   0.5398204 0.14370397 0.55282134     O
O50   0.724729 0.15731966 0.5422261     O
O51   0.4577866 0.25822642 0.786134     O
C52   0.5405251 0.61801296 0.6682043     C
C53   0.5956314 0.81397265 0.6658247     C
C54   0.57205635 0.33669177 0.63560605     C
C55   0.777014 0.034484625 0.63930905     C
C56   0.5939426 0.44044274 0.63850105     C
C57   0.7392172 0.93545324 0.6415587     C
C58   0.517792 0.50975925 0.6701532     C
C59   0.6327337 0.91778356 0.66556793     C
C60   0.42113346 0.47497055 0.7018675     C
C61   0.56499666 0.9991071 0.69021994     C
C62   0.40122014 0.37168393 0.70023644     C
C63   0.6049411 0.09652531 0.690505     C
C64   0.6501131 0.26422676 0.59629464     C
C65   0.8912757 0.05007851 0.61327153     C
C66   0.7671119 0.47729135 0.6628401     C
C67   0.8744511 0.5011278 0.6263533     C
C68   0.8545126 0.8076427 0.6806904     C
C69   0.9670206 0.7684744 0.6591528     C
C70   0.3369416 0.5465574 0.7352571     C
C71   0.4492388 0.98698807 0.7140502     C
C72   0.44676164 0.19562753 0.6663004     C
C73   0.7426398 0.21955621 0.6631657     C
C74   0.4751624 0.30251354 0.6676127     C
C75   0.7087916 0.11501992 0.6641358     C
H76   0.553202 0.15933049 0.70916593     H
H77   0.32707757 0.34462497 0.7245922     H
H78   0.7764573 0.4029028 0.69238096     H
H79   0.74639535 0.5373525 0.70440406     H
H80   0.90085113 0.43857425 0.5885294     H
H81   0.86619866 0.5722306 0.59318364     H
H82   0.9361007 0.5102671 0.6699377     H
H83   0.80579686 0.74213684 0.69785106     H
H84   0.8622172 0.85831565 0.7299617     H
H85   0.02009499 0.8329009 0.647824     H
H86   0.0013513565 0.7219063 0.7055675     H
H87   0.96433276 0.7215051 0.6081131     H
H88   0.31471804 0.6067047 0.6939829     H
H89   0.26253784 0.5069486 0.7512657     H
H90   0.36823153 0.58147085 0.78648883     H
H91   0.41904473 0.91080177 0.702566     H
H92   0.4403717 0.0021176338 0.7748649     H
H93   0.39704412 0.04222381 0.6829675     H
H94   0.60661834 0.21964905 0.554735     H
H95   0.7147868 0.3034764 0.5655472     H
H96   0.6891467 0.21245918 0.6377145     H
H97   0.9144193 0.13003242 0.6139539     H
H98   0.9476653 0.0076898336 0.6505642     H
H99   0.9019313 0.021901608 0.55522555     H
N100  0.57520604 0.66177994 0.603739     N
N101  0.6024582 0.75819373 0.60257185     N
N102  0.5614222 0.7702556 0.73041314     N
N103  0.5342751 0.6737672 0.7315521     N
O104  0.34777066 0.17352995 0.6564715     O
O105  0.7390435 0.26980305 0.7244598     O
O106  0.5196536 0.12563731 0.6771911     O
O107  0.77136433 0.26081944 0.6008203     O
O108  0.6881719 0.4750605 0.6068884     O
O109  0.8067877 0.8562347 0.6178938     O
loop_
_geom_bond_atom_site_label_1
_geom_bond_atom_site_label_2
_geom_bond_distance
_geom_bond_site_symmetry_2
_ccdc_geom_bond_type
C0    C7     1.39452       .     S
C0    C11    1.37964       .     S
C0    H19    1.08395   1_545     A
C1    C2     1.38442       .     A
C1    H13    1.08149       .     S
C1    N21    1.35780       .     A
C2    C1     1.38442       .     A
C2    C3     1.38849   1_655     S
C2    H15    1.08248       .     A
C3    C2     1.38849   1_455     A
C3    C4     1.41789       .     A
C3    H14    1.07666       .     A
C4    C3     1.41789       .     A
C4    C5     1.40630   1_455     A
C4    C6     1.40675       .     A
C5    C4     1.40630   1_655     A
C5    C9     1.39982       .     S
C5    N21    1.34918       .     A
C6    C4     1.40675       .     A
C6    C7     1.42552       .     S
C6    C10    1.38905       .     A
C7    C0     1.39452       .     S
C7    C6     1.42552       .     A
C7    C8     1.38544       .     S
C8    C7     1.38544       .     S
C8    C9     1.37825   1_455     S
C8    H18    1.08453   1_545     A
C9    C5     1.39982       .     A
C9    C8     1.37825   1_655     S
C9    H16    1.06440       .     A
C10   C6     1.38905       .     A
C10   H12    1.07518       .     S
C10   N20    1.33591       .     A
C11   C0     1.37964       .     A
C11   H17    1.08186       .     A
C11   N20    1.35431       .     A
H12   C10    1.07518       .     A
H13   C1     1.08149       .     A
H14   C3     1.07666       .     A
H15   C2     1.08248       .     A
H16   C9     1.06440       .     S
H17   C11    1.08186       .     A
H18   C8     1.08453   1_565     A
H19   C0     1.08395   1_565     S
N20   C10    1.33591       .     A
N20   C11    1.35431       .     S
N20   Zn22   1.90407       .     A
N21   C1     1.35780       .     S
N21   C5     1.34918       .     S
N21   Zn23   1.97435       .     S
Zn22  N20    1.90407       .     D
Zn22  Zn23   3.03247       .     S
Zn22  O49    1.97153       .     S
Zn22  O51    2.63152       .     A
Zn22  O104   1.64565       .     A
Zn22  O106   0.93807       .     S
Zn23  N21    1.97435       .     S
Zn23  Zn22   3.03247       .     A
Zn23  O48    1.88742       .     A
Zn23  O50    2.75149       .     S
Zn23  O105   0.94968       .     A
Zn23  O107   1.64698       .     S
H24   C36    1.08360       .     A
H25   C37    1.08359       .     S
H26   C38    1.08380       .     T
H27   C39    1.08359       .     S
H28   C40    1.08260       .     A
H29   C41    1.07872       .     A
H30   C42    1.07619       .     S
H31   C43    1.08098       .     S
C32   C33    1.19849       .     A
C32   C46    1.42760       .     A
C33   C32    1.19849       .     S
C33   C47    1.42755       .     A
C34   C45    1.47154       .     S
C34   O48    1.31562       .     A
C34   O51    1.31765       .     S
C35   C44    1.46458       .     D
C35   O49    1.31715       .     S
C35   O50    1.31281       .     D
C36   H24    1.08360       .     S
C36   C40    1.39352       .     S
C36   C46    1.39750       .     A
C37   H25    1.08359       .     A
C37   C41    1.39453   1_554     S
C37   C47    1.39695       .     S
C38   H26    1.08380       .     A
C38   C42    1.39259   1_554     A
C38   C47    1.39607       .     S
C39   H27    1.08359       .     A
C39   C43    1.39368       .     S
C39   C46    1.39786       .     A
C40   H28    1.08260       .     S
C40   C36    1.39352       .     T
C40   C44    1.40426       .     S
C41   H29    1.07872       .     A
C41   C37    1.39453   1_556     A
C41   C45    1.40512       .     S
C42   H30    1.07619       .     S
C42   C38    1.39259   1_556     A
C42   C45    1.40337       .     A
C43   H31    1.08098       .     S
C43   C39    1.39368       .     A
C43   C44    1.40324       .     S
C44   C35    1.46458       .     A
C44   C40    1.40426       .     S
C44   C43    1.40324       .     D
C45   C34    1.47154       .     S
C45   C41    1.40512       .     D
C45   C42    1.40337       .     S
C46   C32    1.42760       .     S
C46   C36    1.39750       .     S
C46   C39    1.39786       .     S
C47   C33    1.42755       .     S
C47   C37    1.39695       .     S
C47   C38    1.39607       .     A
O48   Zn23   1.88742       .     A
O48   C34    1.31562       .     S
O49   Zn22   1.97153       .     S
O49   C35    1.31715       .     A
O50   Zn23   2.75149       .     A
O50   C35    1.31281       .     S
O51   Zn22   2.63152       .     S
O51   C34    1.31765       .     S
C52   C58    1.46689       .     S
C52   N100   1.35621       .     A
C52   N103   1.35579       .     S
C53   C59    1.46115       .     S
C53   N101   1.35477       .     A
C53   N102   1.35591       .     S
C54   C56    1.40763       .     S
C54   C64    1.51184       .     S
C54   C74    1.41291       .     S
C55   C57    1.40463   1_545     S
C55   C65    1.50958       .     S
C55   C75    1.41011       .     A
C56   C54    1.40763       .     A
C56   C58    1.41210       .     A
C56   O108   1.38383       .     S
C57   C55    1.40463   1_565     S
C57   C59    1.41289       .     A
C57   O109   1.38621       .     S
C58   C52    1.46689       .     A
C58   C56    1.41210       .     S
C58   C60    1.41117       .     S
C59   C53    1.46115       .     S
C59   C57    1.41289       .     S
C59   C61    1.41340       .     A
C60   C58    1.41117       .     S
C60   C62    1.39537       .     S
C60   C70    1.50860       .     S
C61   C59    1.41340       .     A
C61   C63    1.39466   1_565     A
C61   C71    1.50925       .     S
C62   C60    1.39537       .     A
C62   C74    1.40040       .     S
C62   H77    1.08438       .     S
C63   C61    1.39466   1_545     S
C63   C75    1.39744       .     A
C63   H76    1.08544       .     S
C64   C54    1.51184       .     A
C64   H94    1.10901       .     S
C64   H95    1.10837       .     S
C64   H96    1.10943       .     A
C65   C55    1.50958       .     S
C65   H97    1.10402       .     S
C65   H98    1.10924       .     D
C65   H99    1.10986       .     S
C66   C67    1.51911       .     D
C66   H78    1.11513       .     S
C66   H79    1.11325       .     S
C66   O108   1.41186       .     S
C67   C66    1.51911       .     S
C67   H80    1.11068       .     S
C67   H81    1.10918       .     S
C67   H82    1.11031       .     A
C68   C69    1.52200       .     A
C68   H83    1.11123       .     S
C68   H84    1.11759       .     S
C68   O109   1.41588       .     A
C69   C68    1.52200       .     A
C69   H85    1.10966   1_655     S
C69   H86    1.11023   1_655     S
C69   H87    1.10897       .     S
C70   C60    1.50860       .     S
C70   H88    1.11048       .     A
C70   H89    1.11090       .     S
C70   H90    1.10937       .     S
C71   C61    1.50925       .     A
C71   H91    1.10742       .     S
C71   H92    1.11007   1_565     S
C71   H93    1.11112   1_565     S
C72   C74    1.46718       .     S
C72   O104   1.28929       .     S
C72   O106   1.28928       .     S
C73   C75    1.45675       .     A
C73   O105   1.28511       .     A
C73   O107   1.28760       .     A
C74   C54    1.41291       .     S
C74   C62    1.40040       .     S
C74   C72    1.46718       .     A
C75   C55    1.41011       .     S
C75   C63    1.39744       .     A
C75   C73    1.45675       .     S
H76   C63    1.08544       .     S
H77   C62    1.08438       .     S
H78   C66    1.11513       .     S
H79   C66    1.11325       .     A
H80   C67    1.11068       .     S
H81   C67    1.10918       .     S
H82   C67    1.11031       .     S
H83   C68    1.11123       .     A
H84   C68    1.11759       .     A
H85   C69    1.10966   1_455     S
H86   C69    1.11023   1_455     A
H87   C69    1.10897       .     S
H88   C70    1.11048       .     S
H89   C70    1.11090       .     S
H90   C70    1.10937       .     A
H91   C71    1.10742       .     S
H92   C71    1.11007   1_545     A
H93   C71    1.11112   1_545     S
H94   C64    1.10901       .     S
H95   C64    1.10837       .     A
H96   C64    1.10943       .     S
H97   C65    1.10402       .     S
H98   C65    1.10924       .     D
H99   C65    1.10986       .     S
N100  C52    1.35621       .     S
N100  N101   1.32862       .     S
N101  C53    1.35477       .     S
N101  N100   1.32862       .     S
N102  C53    1.35591       .     S
N102  N103   1.32920       .     S
N103  C52    1.35579       .     S
N103  N102   1.32920       .     S
O104  Zn22   1.64565       .     S
O104  C72    1.28929       .     S
O105  Zn23   0.94968       .     S
O105  C73    1.28511       .     S
O106  Zn22   0.93807       .     S
O106  C72    1.28928       .     S
O107  Zn23   1.64698       .     S
O107  C73    1.28760       .     S
O108  C56    1.38383       .     S
O108  C66    1.41186       .     S
O109  C57    1.38621       .     S
O109  C68    1.41588       .     S
