data_I
_chemical_name_common  '/home/sibivarshan_m7/MOFDiff/MOFDiff/results/nh3_target_12.0mmol/cif/sample_7'
_cell_length_a 11.79264
_cell_length_b 20.22007
_cell_length_c 20.38568
_cell_angle_alpha 96.31605
_cell_angle_beta  91.16499
_cell_angle_gamma 94.93105
_space_group_name_H-M_alt      'P 1'


loop_
_space_group_symop_operation_xyz
  'x, y, z' 

loop_
_atom_site_label
_atom_site_fract_x
_atom_site_fract_y
_atom_site_fract_z
_atom_site_type_symbol
C0    0.050643444 0.0737486 0.9442515     C
C1    0.91798365 0.9793305 0.66278964     C
C2    0.07612336 0.053608987 0.87465775     C
C3    0.88911813 0.0045313775 0.73005915     C
C4    0.99185824 0.020588765 0.8353776     C
C5    0.9743388 0.037037846 0.76771754     C
Br6   0.9008503 0.94526404 0.8646765    Br
Br7   0.029675722 0.12391637 0.74404573    Br
N8    0.18875933 0.06683008 0.8491064     N
N9    0.7747889 0.02162431 0.74320567     N
O10   0.9465188 0.059278276 0.962992     O
O11   0.022075176 0.99370855 0.6444136     O
O12   0.1298821 0.10740971 0.98374975     O
O13   0.83871174 0.94557714 0.62365586     O
O14   0.27152002 0.09680607 0.88720727     O
O15   0.21498549 0.036460634 0.7924832     O
O16   0.71269006 0.039352246 0.69589436     O
O17   0.74299544 0.03508188 0.80360305     O
C18    0.39383 0.62865454 0.89172894     C
C19   0.5501646 0.42254394 0.6887526     C
C20   0.37924096 0.58266115 0.830087     C
C21   0.5638737 0.4631635 0.75306356     C
C22   0.4727206 0.55774474 0.8040902     C
C23   0.46976954 0.48707658 0.7775109     C
Br24  0.608924 0.6165159 0.7939964    Br
Br25  0.35703948 0.42229852 0.8068807    Br
N26   0.26886055 0.5658798 0.7969055     N
N27   0.65288186 0.4512622 0.798839     N
O28   0.49700624 0.6412202 0.9179502     O
O29   0.44711834 0.4103461 0.6627018     O
O30   0.30430815 0.6527982 0.91944593     O
O31   0.6398165 0.39876804 0.661206     O
O32   0.1787577 0.5913645 0.82054347     O
O33   0.26217672 0.5372501 0.73634666     O
O34   0.68995124 0.39237225 0.7959046     O
O35   0.67687917 0.49238467 0.8519608     O
Cr36  0.6263794 0.3331774 0.5581617    Cr
Cr37  0.446677 0.46192467 0.5455674    Cr
Cr38  0.32887733 0.29887733 0.5627194    Cr
O39   0.46729818 0.36463624 0.55538607     O
H40   0.29392952 0.9954217 0.3003591     H
H41    0.93815 0.80415404 0.21328999     H
H42   0.53707206 0.6696029 0.30704495     H
H43   0.20363067 0.56998515 0.27317092     H
C44   0.2891971 0.5827186 0.29344133     C
C45   0.35318393 0.6425587 0.2933244     C
C46   0.1940159 0.86347204 0.26565897     C
C47   0.2348319 0.8118992 0.26045042     C
C48   0.27915403 0.751721 0.26317382     C
C49   0.3143619 0.70085025 0.27363956     C
C50   0.20272163 0.98449856 0.2954836     C
C51   0.14357269 0.9236228 0.27741936     C
C52   0.028510714 0.9301595 0.2842186     C
C53   0.46339476 0.63473564 0.31118488     C
S54   0.930928 0.8658354 0.3063751     S
N55   0.12507227 0.0276407 0.30939832     N
N56   0.017617594 0.99559903 0.29847595     N
N57   0.46640757 0.5713939 0.32328182     N
N58   0.3589529 0.5393522 0.31235945     N
O59   0.9917101 0.82075334 0.3463181     O
O60   0.8394745 0.8952735 0.34752047     O
O61   0.87267077 0.8202255 0.23813333     O
H62   0.703618 0.21036388 0.17516354     H
H63   0.5478713 0.15507847 0.3498438     H
H64   0.87371993 0.25823423 0.3079482     H
H65   0.815156 0.3803709 0.3085615     H
C66   0.7804733 0.16827027 0.37548137     C
C67   0.6880522 0.4042962 0.23853396     C
C68   0.6657438 0.25247738 0.20102187     C
C69   0.59138966 0.20069537 0.33585823     C
C70   0.7181797 0.20831023 0.33562586     C
C71   0.78126884 0.25212252 0.30298686     C
C72   0.75399697 0.35883477 0.26972994     C
C73   0.7314542 0.2917755 0.2578877     C
O74   0.8806332 0.19283463 0.3967224     O
O75   0.56764007 0.26101705 0.18657055     O
O76   0.5347194 0.24602795 0.32418874     O
O77   0.7377296 0.10926525 0.38584712     O
O78   0.72870284 0.46533057 0.23219788     O
O79   0.5857992 0.38176116 0.22132261     O
C80   0.36963853 0.6953765 0.91109765     C
C81   0.14574009 0.8467877 0.7700523     C
C82   0.10239457 0.8880642 0.7241318     C
C83   0.25038722 0.7697853 0.84190613     C
C84   0.19081692 0.8112807 0.804586     C
C85   0.30434203 0.73510885 0.8729614     C
O86   0.47862726 0.71019256 0.91245884     O
O87   0.33454064 0.63228005 0.9070982     O
O88   0.016262088 0.8657536 0.68718773     O
O89   0.16374587 0.9397656 0.71302664     O
H90   0.83349794 0.98376775 0.21280925     H
C91   0.13803543 0.13396238 0.23112641     C
C92   0.084682554 0.98906285 0.3271014     C
C93   0.01749245 0.011868197 0.3754488     C
C94   0.14416717 0.036520608 0.29000995     C
C95   0.082664594 0.07556909 0.25598758     C
C96   0.96643525 0.9664716 0.41657233     C
C97   0.95895183 0.057073228 0.23838392     C
Cl98  0.09983877 0.9034913 0.30303064    Cl
Cl99  0.003594459 0.09774724 0.3995221    Cl
Cl100 0.29189196 0.0504498 0.30987763    Cl
O101  0.076142155 0.17969252 0.21430387     O
O102  0.24405335 0.13237815 0.21740459     O
O103  0.8628945 0.9719488 0.43428037     O
O104  0.030805666 0.9246344 0.43738112     O
O105  0.8934044 0.10045562 0.23590586     O
O106  0.9181693 0.98986787 0.22402623     O
C107  0.93770736 0.74947155 0.39230514     C
C108  0.55057025 0.7838577 0.23090132     C
C109  0.7913972 0.81624806 0.35343927     C
C110  0.69571775 0.82221144 0.31698352     C
C111  0.84681827 0.7579373 0.34557375     C
C112  0.65501845 0.7744076 0.26601362     C
C113  0.815794 0.7100893 0.29006788     C
C114  0.7205785 0.71948725 0.24856365     C
C115  0.646424 0.87006533 0.3682731     C
C116  0.75618374 0.86281157 0.41114277     C
C117  0.88756055 0.6537776 0.27421883     C
C118  0.6942994 0.67499614 0.185937     C
C119  0.63618684 0.93817925 0.34326628     C
C120  0.83563703 0.9262487 0.42447585     C
C121  0.53585076 0.84296757 0.39708441     C
C122  0.7392025 0.82727724 0.47304758     C
O123  0.49513775 0.87765175 0.4536682     O
O124  0.6904956 0.77095956 0.46915263     O
O125  0.78101003 0.85851103 0.53450304     O
H126  0.97955483 0.6625317 0.27967283     H
H127  0.7009229 0.62175465 0.18337084     H
H128  0.7808186 0.9373357 0.29014474     H
H129  0.98504066 0.9766347 0.40740132     H
H130  0.42134017 0.8553167 0.46862155     H
H131  0.7655235 0.8296335 0.57151216     H
O132  0.95365375 0.6914603 0.40765688     O
O133  0.48122743 0.7336103 0.2108934     O
O134  0.0049262047 0.8000075 0.4143284     O
O135  0.5324999 0.8421575 0.21756482     O
O136  0.8452466 0.5969157 0.25837737     O
O137  0.6667438 0.6979915 0.13562155     O
O138  0.5557372 0.9699804 0.3593952     O
O139  0.7161458 0.9658542 0.30175236     O
O140  0.80660987 0.97312385 0.46158892     O
O141  0.9410993 0.93161577 0.3944738     O
O142  0.48299056 0.7914715 0.3717756     O
Cr143 0.5927637 0.61567867 0.056142166    Cr
Cr144 0.5419802 0.7760755 0.09583395    Cr
Cr145 0.32272348 0.6612613 0.034498952    Cr
O146  0.48582456 0.6843396 0.062159274     O
C147  0.7918152 0.29520625 0.7506121     C
C148  0.7672689 0.23053682 0.7568976     C
C149  0.7208068 0.3410341 0.7861188     C
C150  0.6611056 0.38411194 0.89311016     C
C151  0.7100825 0.33521098 0.85044867     C
C152  0.8223103 0.17768383 0.7221966     C
H153  0.68933105 0.21495986 0.78101766     H
H154  0.9870976 0.4229639 0.68883777     H
H155  0.7734919 0.47166517 0.7924025     H
H156  0.7572887 0.30011326 0.87438923     H
O157  0.7535565 0.12941986 0.695164     O
O158  0.93240255 0.18039913 0.71706456     O
O159  0.015591264 0.31188592 0.753873     O
O160  0.91971344 0.29374436 0.6443553     O
O161  0.91723865 0.41028744 0.71233314     O
O162  0.5521035 0.38014466 0.89997786     O
O163  0.65633893 0.3785827 0.66971564     O
O164  0.5258187 0.3944881 0.7609191     O
O165  0.7086045 0.47568533 0.76200354     O
O166  0.7309495 0.43112394 0.92187834     O
S167  0.9151618 0.32720533 0.71355575     S
S168  0.64888006 0.39736164 0.7428147     S
Cr169 0.83932066 0.89683086 0.5606397    Cr
Cr170 0.1309979 0.93012184 0.54572326    Cr
Cr171 0.016764522 0.7723268 0.564323    Cr
O172  0.99569756 0.86642694 0.55689514     O
C173  0.10218451 0.22357635 0.93574065     C
C174  0.33045074 0.32725602 0.6662736     C
C175  0.27390566 0.2993715 0.7193235     C
C176  0.15828635 0.24133661 0.87805337     C
C177  0.19707559 0.25712305 0.8274426     C
C178  0.23652236 0.27839628 0.7680842     C
O179  0.11230344 0.16320588 0.948972     O
O180  0.38777986 0.28920072 0.6284367     O
O181  0.098460644 0.27064836 0.98372656     O
O182  0.3428574 0.39052963 0.6685053     O
Cr183 0.12168956 0.26438227 0.075218804    Cr
Cr184 0.018441081 0.10138062 0.06583741    Cr
Cr185 0.83781767 0.22333577 0.042015173    Cr
O186  0.99265057 0.19636533 0.061027262     O
C187  0.528701 0.49730098 0.2272757     C
C188  0.5025664 0.52441776 0.35434467     C
C189  0.5179056 0.5101092 0.28588617     C
C190  0.4813966 0.5360559 0.4118645     C
C191  0.54492384 0.48131013 0.15791771     C
C192  0.44087932 0.5490264 0.47750577     C
O193  0.45815226 0.60748214 0.50818354     O
O194  0.36936784 0.5057511 0.49677664     O
O195  0.5836064 0.53131014 0.12711102     O
O196  0.46965593 0.4378662 0.12660402     O
H197  0.26507413 0.27430168 0.4048345     H
H198  0.08404584 0.25888067 0.34572786     H
H199  0.53247106 0.20922089 0.3286153     H
H200  0.049331456 0.1668693 0.17050338     H
H201  0.42902744 0.39119866 0.42839867     H
H202  0.9695943 0.36015534 0.25709856     H
H203  0.35355413 0.22447848 0.11915912     H
H204  0.20388159 0.20187807 0.10223396     H
H205  0.2843505 0.25312984 0.049570818     H
H206  0.15634146 0.31585798 0.12968004     H
H207  0.29889005 0.349469 0.13206147     H
H208  0.5750823 0.42220506 0.21073993     H
H209  0.42513335 0.4328006 0.21670857     H
H210  0.5081848 0.42038774 0.28920612     H
H211  0.54136217 0.30496013 0.23731071     H
H212  0.4658773 0.31805113 0.16553806     H
C213  0.046903674 0.26784244 0.22326764     C
C214  0.24369778 0.30531135 0.14380386     C
C215  0.27334887 0.24237438 0.101347834     C
C216  0.46906087 0.33074892 0.21976756     C
C217  0.4957082 0.40618357 0.23521559     C
N218  0.892832 0.21263818 0.18300648     N
C219  0.2536839 0.29716596 0.2168952     C
C220  0.35917452 0.3072981 0.25173426     C
C221  0.3595382 0.29805365 0.31932372     C
C222  0.15640393 0.2799853 0.2526982     C
C223  0.2620039 0.28111202 0.35277355     C
C224  0.16028297 0.2724344 0.31950724     C
C225  0.53380084 0.25626063 0.3595774     C
C226  0.0034931237 0.20805867 0.19087923     C
C227  0.48290846 0.3529895 0.4107303     C
C228  0.9611476 0.30819765 0.23680753     C
C229  0.46075323 0.30520797 0.35779017     C
N230  0.5764296 0.33766025 0.4405138     N
N231  0.8659101 0.27389988 0.21251783     N
N232  0.6032889 0.2763866 0.41099864     N
C233  0.87450606 0.81846935 0.7729053     C
C234  0.9710952 0.8441134 0.7393901     C
C235  0.5301055 0.69273996 0.8779352     C
C236  0.61814535 0.7244937 0.84215695     C
C237  0.79204553 0.79073817  0.79517     C
C238  0.69688076 0.7548251 0.81893176     C
O239  0.44191435 0.7250592 0.89021415     O
O240  0.5560618 0.64341724 0.908267     O
O241  0.9551962 0.8888955 0.700398     O
O242  0.05782926 0.8097676 0.73778826     O
loop_
_geom_bond_atom_site_label_1
_geom_bond_atom_site_label_2
_geom_bond_distance
_geom_bond_site_symmetry_2
_ccdc_geom_bond_type
C0    C2     1.47652       .     D
C0    O10    1.31195   1_455     D
C0    O12    1.31311       .     S
C1    C3     1.46668   1_565     S
C1    O11    1.30880   1_655     S
C1    O13    1.31009       .     D
C2    C0     1.47652       .     S
C2    C4     1.34551   1_455     S
C2    N8     1.45080       .     S
C3    C1     1.46668   1_545     S
C3    C5     1.33244       .     S
C3    N9     1.44342       .     D
C4    C2     1.34551   1_655     S
C4    C5     1.46865       .     S
C4    Br6    1.94255   1_545     D
C5    C3     1.33244       .     D
C5    C4     1.46865       .     S
C5    Br7    1.93570   1_655     D
Br6   C4     1.94255   1_565     D
Br7   C5     1.93570   1_455     S
N8    C2     1.45080       .     S
N8    O14    1.29887       .     S
N8    O15    1.30244       .     D
N9    C3     1.44342       .     S
N9    O16    1.29902       .     S
N9    O17    1.30122       .     S
O10   C0     1.31195   1_655     S
O10   Cr184  2.29141   1_656     S
O11   C1     1.30880   1_455     D
O11   Cr170  2.67777       .     S
O12   C0     1.31311       .     S
O12   Cr183  3.50976   1_556     D
O13   C1     1.31009       .     D
O13   Cr170  3.84719   1_655     S
O14   N8     1.29887       .     D
O15   N8     1.30244       .     D
O16   N9     1.29902       .     S
O17   N9     1.30122       .     S
C18   C20    1.47653       .     S
C18   O28    1.31195       .     D
C18   O30    1.31311       .     S
C19   C21    1.46668       .     S
C19   O29    1.30880       .     S
C19   O31    1.31009       .     S
C20   C18    1.47653       .     S
C20   C22    1.34551       .     D
C20   N26    1.45080       .     S
C21   C19    1.46668       .     S
C21   C23    1.33244       .     D
C21   N27    1.44342       .     D
C22   C20    1.34551       .     S
C22   C23    1.46865       .     D
C22   Br24   1.94255       .     D
C23   C21    1.33244       .     S
C23   C22    1.46865       .     S
C23   Br25   1.93570       .     S
Br24  C22    1.94255       .     D
Br25  C23    1.93570       .     S
N26   C20    1.45080       .     S
N26   O32    1.29887       .     S
N26   O33    1.30244       .     S
N27   C21    1.44342       .     S
N27   O34    1.29902       .     D
N27   O35    1.30122       .     S
O28   C18    1.31195       .     S
O28   Cr145  3.18798   1_556     D
O29   C19    1.30880       .     D
O29   Cr38   3.08416       .     S
O30   C18    1.31311       .     S
O30   Cr145  2.33711   1_556     S
O31   C19    1.31009       .     S
O31   Cr36   2.35245       .     S
O32   N26    1.29887       .     S
O33   N26    1.30244       .     S
O34   N27    1.29902       .     S
O35   N27    1.30122       .     S
Cr36  O31    2.35245       .     S
Cr36  O39    2.03369       .     D
Cr36  O74    5.26145       .     S
Cr36  O157   5.51792       .     S
Cr36  O182   4.24052       .     S
Cr37  O39    2.03369       .     S
Cr37  N57    5.25822       .     D
Cr37  N58    5.27625       .     T
Cr37  O193   3.11298       .     S
Cr37  O194   1.70344       .     S
Cr38  O29    3.08416       .     S
Cr38  O39    2.03357       .     S
Cr38  O180   1.53582       .     S
Cr38  N230   3.95924       .     T
Cr38  N232   4.53822       .     S
O39   Cr36   2.03369       .     S
O39   Cr37   2.03369       .     D
O39   Cr38   2.03357       .     D
H40   C50    1.07959       .     S
H41   O61    0.99054       .     S
H42   C53    1.08159       .     S
H43   C44    1.08176       .     S
C44   H43    1.08176       .     S
C44   C45    1.37010       .     S
C44   N58    1.33410       .     D
C45   C44    1.37010       .     S
C45   C49    1.39615       .     S
C45   C53    1.36950       .     S
C46   C47    1.18085       .     S
C46   C51    1.39879       .     D
C47   C46    1.18085       .     T
C47   C48    1.37110       .     S
C48   C47    1.37110       .     S
C48   C49    1.18070       .     S
C49   C45    1.39615       .     S
C49   C48    1.18070       .     S
C50   H40    1.07959       .     T
C50   C51    1.37095       .     S
C50   N55    1.33168   1_565     S
C51   C46    1.39879       .     D
C51   C50    1.37095       .     D
C51   C52    1.38285       .     S
C52   C51    1.38285       .     S
C52   S54    1.76437   1_455     S
C52   N56    1.34087       .     D
C53   H42    1.08159       .     S
C53   C45    1.36950       .     S
C53   N57    1.33395       .     S
S54   C52    1.76437   1_655     S
S54   O59    1.50322       .     D
S54   O60    1.50275       .     S
S54   O61    1.68159       .     D
N55   C50    1.33168   1_545     S
N55   N56    1.37503   1_545     S
N55   Cr184  5.49131       .     S
N56   C52    1.34087       .     S
N56   N55    1.37503   1_565     D
N56   Cr184  5.41262   1_565     S
N57   Cr37   5.25822       .     S
N57   C53    1.33395       .     D
N57   N58    1.37503       .     S
N58   Cr37   5.27625       .     D
N58   C44    1.33410       .     S
N58   N57    1.37503       .     S
O59   S54    1.50322       .     S
O60   S54    1.50275       .     S
O61   H41    0.99054       .     D
O61   S54    1.68159       .     S
H62   C68    1.08567       .     D
H63   C69    1.08530       .     S
H64   C71    1.08800       .     S
H65   C72    1.08783       .     S
C66   C70    1.44151       .     S
C66   O74    1.28854       .     D
C66   O77    1.29561       .     S
C67   C72    1.44416       .     S
C67   O78    1.30592       .     D
C67   O79    1.27981       .     S
C68   H62    1.08567       .     D
C68   C73    1.49354       .     S
C68   O75    1.21930       .     S
C69   H63    1.08530       .     T
C69   C70    1.49003       .     S
C69   O76    1.22075       .     T
C70   C66    1.44151       .     S
C70   C69    1.49003       .     D
C70   C71    1.34816       .     S
C71   H64    1.08800       .     D
C71   C70    1.34816       .     S
C71   C73    1.43332       .     S
C72   H65    1.08783       .     T
C72   C67    1.44416       .     S
C72   C73    1.35312       .     T
C73   C68    1.49354       .     S
C73   C71    1.43332       .     D
C73   C72    1.35312       .     S
O74   Cr36   5.26145       .     S
O74   C66    1.28854       .     S
O75   C68    1.21930       .     S
O76   C69    1.22075       .     D
O77   C66    1.29561       .     S
O77   Cr169  6.05489   1_545     S
O78   C67    1.30592       .     D
O78   Cr144  7.61766       .     S
O79   C67    1.27981       .     S
O79   Cr143  6.09636       .     S
C80   C85    1.43604       .     D
C80   O86    1.29343       .     S
C80   O87    1.30024       .     D
C81   C82    1.43526       .     S
C81   C84    1.20633       .     S
C82   C81    1.43526       .     S
C82   O88    1.27192       .     S
C82   O89    1.26344       .     S
C83   C84    1.41292       .     S
C83   C85    1.20633       .     D
C84   C81    1.20633       .     S
C84   C83    1.41292       .     S
C85   C80    1.43604       .     D
C85   C83    1.20633       .     S
O86   C80    1.29343       .     S
O86   Cr144  3.86352   1_556     S
O87   C80    1.30024       .     D
O87   Cr145  2.60805   1_556     S
O88   C82    1.27192       .     D
O88   Cr171  2.96709       .     S
O89   C82    1.26344       .     S
O89   Cr170  3.40683       .     S
H90   O106   1.01382       .     S
C91   C95    1.44565       .     D
C91   O101   1.29652       .     S
C91   O102   1.28899       .     D
C92   C93    1.34403   1_565     S
C92   C94    1.43183   1_565     S
C92   Cl98   1.77100       .     S
C93   C92    1.34403   1_545     A
C93   C96    1.41518   1_445     A
C93   Cl99   1.77419       .     D
C94   C92    1.43183   1_545     S
C94   C95    1.35239       .     A
C94   Cl100  1.77201       .     A
C95   C91    1.44565       .     A
C95   C94    1.35239       .     S
C95   C97    1.50081   1_455     A
C96   C93    1.41518   1_665     S
C96   O103   1.29068       .     D
C96   O104   1.28377   1_655     S
C97   C95    1.50081   1_655     S
C97   O105   1.22239       .     S
C97   O106   1.39928   1_545     S
Cl98  C92    1.77100       .     S
Cl99  C93    1.77419       .     S
Cl100 C94    1.77201       .     D
O101  C91    1.29652       .     S
O101  Cr183  3.49746       .     S
O102  C91    1.28899       .     S
O102  Cr183  4.44999       .     D
O103  C96    1.29068       .     S
O103  Cr169  3.13641       .     S
O104  C96    1.28377   1_455     S
O104  Cr171  4.22986       .     D
O105  C97    1.22239       .     S
O106  H90    1.01382       .     S
O106  C97    1.39928   1_565     D
C107  C111   1.45312       .     S
C107  O132   1.27496       .     S
C107  O134   1.27256   1_655     D
C108  C112   1.44938       .     S
C108  O133   1.27269       .     D
C108  O135   1.27291       .     S
C109  C110   1.35976       .     S
C109  C111   1.39217       .     S
C109  C116   1.51196       .     A
C110  C109   1.35976       .     A
C110  C112   1.38683       .     D
C110  C115   1.50540       .     S
C111  C107   1.45312       .     A
C111  C109   1.39217       .     A
C111  C113   1.42537       .     A
C112  C108   1.44938       .     S
C112  C110   1.38683       .     A
C112  C114   1.42454       .     S
C113  C111   1.42537       .     D
C113  C114   1.43045       .     S
C113  C117   1.48760       .     S
C114  C112   1.42454       .     S
C114  C113   1.43045       .     S
C114  C118   1.48948       .     S
C115  C110   1.50540       .     S
C115  C116   1.57336       .     D
C115  C119   1.53358       .     S
C115  C121   1.52466       .     S
C116  C109   1.51196       .     S
C116  C115   1.57336       .     D
C116  C120   1.51771       .     S
C116  C122   1.52773       .     S
C117  C113   1.48760       .     S
C117  H126   1.08552       .     D
C117  O136   1.21997       .     S
C118  C114   1.48948       .     S
C118  H127   1.08168       .     D
C118  O137   1.22116       .     S
C119  C115   1.53358       .     S
C119  O138   1.22175       .     S
C119  O139   1.40157       .     S
C120  C116   1.51771       .     S
C120  O140   1.22330       .     S
C120  O141   1.39818       .     S
C121  C115   1.52466       .     S
C121  O123   1.39833       .     S
C121  O142   1.22316       .     S
C122  C116   1.52773       .     S
C122  O124   1.22424       .     S
C122  O125   1.39955       .     S
O123  C121   1.39833       .     S
O123  H130   1.01378       .     S
O124  C122   1.22424       .     S
O125  C122   1.39955       .     S
O125  H131   1.01376       .     S
H126  C117   1.08552       .     S
H127  C118   1.08168       .     S
H128  O139   1.01148       .     S
H129  O141   1.01349       .     S
H130  O123   1.01378       .     D
H131  O125   1.01376       .     S
O132  C107   1.27496       .     S
O132  Cr171  3.46016   1_655     S
O133  C108   1.27269       .     D
O133  Cr143  4.05231       .     S
O134  C107   1.27256   1_455     S
O134  Cr169  4.01900   1_455     S
O135  C108   1.27291       .     S
O135  Cr144  2.69508       .     S
O136  C117   1.21997       .     S
O137  C118   1.22116       .     S
O138  C119   1.22175       .     S
O139  C119   1.40157       .     S
O139  H128   1.01148       .     S
O140  C120   1.22330       .     S
O141  C120   1.39818       .     S
O141  H129   1.01349       .     S
O142  C121   1.22316       .     S
Cr143 O79    6.09636       .     S
Cr143 O133   4.05231       .     S
Cr143 O146   1.95004       .     D
Cr143 O162   5.40885   1_554     S
Cr143 O240   3.15437   1_554     S
Cr144 O78    7.61766       .     S
Cr144 O86    3.86352   1_554     D
Cr144 O135   2.69508       .     S
Cr144 O146   1.95976       .     S
Cr144 O239   4.32032   1_554     S
Cr145 O28    3.18798   1_554     S
Cr145 O30    2.33711   1_554     S
Cr145 O87    2.60805   1_554     S
Cr145 O146   1.99471       .     S
Cr145 O166   7.21458   1_554     D
O146  Cr143  1.95004       .     S
O146  Cr144  1.95976       .     S
O146  Cr145  1.99471       .     T
C147  C148   1.33543       .     S
C147  C149   1.44716       .     T
C147  S167   1.75941       .     S
C148  C147   1.33543       .     D
C148  C152   1.42668       .     S
C148  H153   1.09013       .     D
C149  C147   1.44716       .     S
C149  C151   1.33709       .     S
C149  S168   1.77562       .     T
C150  C151   1.41316       .     S
C150  O162   1.29244       .     T
C150  O166   1.28415       .     S
C151  C149   1.33709       .     D
C151  C150   1.41316       .     S
C151  H156   1.08849       .     S
C152  C148   1.42668       .     S
C152  O157   1.28099       .     S
C152  O158   1.30154       .     S
H153  C148   1.09013       .     S
H154  O161   0.99023       .     S
H155  O165   0.98927       .     D
H156  C151   1.08849       .     S
O157  Cr36   5.51792       .     S
O157  C152   1.28099       .     T
O158  C152   1.30154       .     S
O158  Cr170  6.46344   1_645     T
O159  S167   1.50120   1_455     S
O160  S167   1.50001       .     D
O161  H154   0.99023       .     S
O161  S167   1.68093       .     D
O162  Cr143  5.40885   1_556     S
O162  C150   1.29244       .     S
O163  S168   1.50303       .     T
O164  S168   1.50254       .     S
O165  H155   0.98927       .     T
O165  S168   1.67867       .     S
O166  Cr145  7.21458   1_556     D
O166  C150   1.28415       .     S
S167  C147   1.75941       .     S
S167  O159   1.50120   1_655     S
S167  O160   1.50001       .     S
S167  O161   1.68093       .     S
S168  C149   1.77562       .     S
S168  O163   1.50303       .     S
S168  O164   1.50254       .     S
S168  O165   1.67867       .     D
Cr169 O77    6.05489   1_565     S
Cr169 O103   3.13641       .     S
Cr169 O134   4.01900   1_655     D
Cr169 O172   1.99368       .     S
Cr169 O241   3.16072       .     D
Cr170 O11    2.67777       .     S
Cr170 O13    3.84719   1_455     S
Cr170 O89    3.40683       .     S
Cr170 O158   6.46344   1_465     S
Cr170 O172   1.99560   1_455     S
Cr171 O88    2.96709       .     S
Cr171 O104   4.22986       .     A
Cr171 O132   3.46016   1_455     A
Cr171 O172   1.96165   1_455     A
Cr171 O242   3.54834       .     S
O172  Cr169  1.99368       .     S
O172  Cr170  1.99560   1_655     A
O172  Cr171  1.96165   1_655     S
C173  C176   1.42595       .     A
C173  O179   1.29355       .     S
C173  O181   1.29184       .     A
C174  C175   1.42511       .     S
C174  O180   1.27442       .     S
C174  O182   1.27086       .     S
C175  C174   1.42511       .     S
C175  C178   1.20031       .     D
C176  C173   1.42595       .     S
C176  C177   1.20090       .     S
C177  C176   1.20090       .     S
C177  C178   1.40310       .     S
C178  C175   1.20031       .     S
C178  C177   1.40310       .     S
O179  C173   1.29355       .     S
O179  Cr184  2.99806   1_556     S
O180  Cr38   1.53582       .     S
O180  C174   1.27442       .     S
O181  C173   1.29184       .     S
O181  Cr183  1.89921   1_556     D
O182  Cr36   4.24052       .     S
O182  C174   1.27086       .     S
Cr183 O12    3.50976   1_554     D
Cr183 O101   3.49746       .     S
Cr183 O102   4.44999       .     D
Cr183 O181   1.89921   1_554     S
Cr183 O186   1.95590   1_455     S
Cr184 O10    2.29141   1_454     S
Cr184 N55    5.49131       .     S
Cr184 N56    5.41262   1_545     S
Cr184 O179   2.99806   1_554     S
Cr184 O186   1.98279   1_455     A
Cr185 O186   1.99259       .     A
Cr185 O195   7.19854       .     A
Cr185 O196   6.52196       .     S
Cr185 N218   2.96881       .     S
Cr185 N231   3.51417       .     A
O186  Cr183  1.95590   1_655     S
O186  Cr184  1.98279   1_655     A
O186  Cr185  1.99259       .     S
C187  C189   1.20608       .     A
C187  C191   1.43573       .     S
C188  C189   1.41226       .     S
C188  C190   1.20579       .     S
C189  C187   1.20608       .     S
C189  C188   1.41226       .     D
C190  C188   1.20579       .     S
C190  C192   1.43458       .     S
C191  C187   1.43573       .     S
C191  O195   1.30257       .     S
C191  O196   1.29867       .     D
C192  C190   1.43458       .     S
C192  O193   1.27297       .     S
C192  O194   1.26231       .     T
O193  Cr37   3.11298       .     S
O193  C192   1.27297       .     T
O194  Cr37   1.70344       .     S
O194  C192   1.26231       .     D
O195  Cr185  7.19854       .     S
O195  C191   1.30257       .     D
O196  Cr185  6.52196       .     S
O196  C191   1.29867       .     S
H197  C223   1.08539       .     T
H198  C224   1.08559       .     S
H199  C225   1.08086       .     T
H200  C226   1.08111       .     S
H201  C227   1.07835       .     D
H202  C228   1.08142       .     S
H203  C215   1.10958       .     S
H204  C215   1.10926       .     S
H205  C215   1.10881       .     S
H206  C214   1.10852       .     S
H207  C214   1.10977       .     S
H208  C217   1.11017       .     S
H209  C217   1.11066       .     S
H210  C217   1.11001       .     S
H211  C216   1.10988       .     S
H212  C216   1.10620       .     S
C213  C222   1.40331       .     S
C213  C226   1.36512       .     S
C213  C228   1.36689   1_455     S
C214  H206   1.10852       .     S
C214  H207   1.10977       .     S
C214  C215   1.52882       .     S
C214  C219   1.52031       .     S
C215  H203   1.10958       .     S
C215  H204   1.10926       .     S
C215  H205   1.10881       .     S
C215  C214   1.52882       .     S
C216  H211   1.10988       .     S
C216  H212   1.10620       .     S
C216  C217   1.52720       .     S
C216  C220   1.52494       .     S
C217  H208   1.11017       .     S
C217  H209   1.11066       .     S
C217  H210   1.11001       .     S
C217  C216   1.52720       .     S
N218  Cr185  2.96881       .     S
N218  C226   1.32395   1_655     S
N218  N231   1.38150       .     S
C219  C214   1.52031       .     S
C219  C220   1.40790       .     S
C219  C222   1.41094       .     S
C220  C216   1.52494       .     S
C220  C219   1.40790       .     S
C220  C221   1.41068       .     S
C221  C220   1.41068       .     S
C221  C223   1.38593       .     S
C221  C229   1.40278       .     S
C222  C213   1.40331       .     S
C222  C219   1.41094       .     S
C222  C224   1.38734       .     S
C223  H197   1.08539       .     S
C223  C221   1.38593       .     S
C223  C224   1.35432       .     S
C224  H198   1.08559       .     S
C224  C222   1.38734       .     S
C224  C223   1.35432       .     S
C225  H199   1.08086       .     S
C225  C229   1.36973       .     S
C225  N232   1.32281       .     S
C226  H200   1.08111       .     S
C226  C213   1.36512       .     S
C226  N218   1.32395   1_455     S
C227  H201   1.07835       .     S
C227  C229   1.37191       .     S
C227  N230   1.32437       .     S
C228  H202   1.08142       .     S
C228  C213   1.36689   1_655     S
C228  N231   1.32492       .     S
C229  C221   1.40278       .     S
C229  C225   1.36973       .     S
C229  C227   1.37191       .     S
N230  Cr38   3.95924       .     S
N230  C227   1.32437       .     S
N230  N232   1.38151       .     S
N231  Cr185  3.51417       .     S
N231  N218   1.38150       .     S
N231  C228   1.32492       .     S
N232  Cr38   4.53822       .     S
N232  C225   1.32281       .     S
N232  N230   1.38151       .     S
C233  C234   1.42869       .     S
C233  C237   1.20260       .     S
C234  C233   1.42869       .     S
C234  O241   1.29167       .     S
C234  O242   1.28375   1_655     S
C235  C236   1.42876       .     S
C235  O239   1.28948       .     S
C235  O240   1.28496       .     S
C236  C235   1.42876       .     S
C236  C238   1.20262       .     S
C237  C233   1.20260       .     S
C237  C238   1.40741       .     S
C238  C236   1.20262       .     S
C238  C237   1.40741       .     S
O239  Cr144  4.32032   1_556     S
O239  C235   1.28948       .     S
O240  Cr143  3.15437   1_556     S
O240  C235   1.28496       .     S
O241  Cr169  3.16072       .     S
O241  C234   1.29167       .     S
O242  Cr171  3.54834       .     S
O242  C234   1.28375   1_455     S
