data_I
_chemical_name_common  '/home/sibivarshan_m7/MOFDiff/MOFDiff/results/nh3_target_12.0mmol/cif/sample_8'
_cell_length_a 10.22228
_cell_length_b 12.48290
_cell_length_c 24.77245
_cell_angle_alpha 91.81921
_cell_angle_beta  91.69345
_cell_angle_gamma 92.25054
_space_group_name_H-M_alt      'P 1'


loop_
_space_group_symop_operation_xyz
  'x, y, z' 

loop_
_atom_site_label
_atom_site_fract_x
_atom_site_fract_y
_atom_site_fract_z
_atom_site_type_symbol
H0    0.2575124 0.6351917 0.15457194     H
H1    0.117857374 0.82752013 0.12634604     H
H2    0.43296105 0.81356174 0.028529478     H
H3    0.25827482 0.7913561 0.02229977     H
H4    0.3290197 0.8859384 0.07308674     H
H5    0.94021165 0.5409638 0.050767597     H
H6    0.11593681 0.55164665 0.052401286     H
H7    0.028672094 0.5237983 0.11353652     H
C8    0.9138653 0.7487971 0.07196935     C
C9    0.45901042 0.65213865 0.09404427     C
C10   0.024660373 0.687656 0.0893535     C
C11   0.34695643 0.71938586 0.09170626     C
C12   0.12283424 0.74220234 0.11673845     C
C13   0.24903803 0.6962861 0.12469546     C
C14   0.34153998 0.8077902 0.051575065     C
C15   0.02766394 0.56909096 0.07571646     C
O16   0.9344174 0.84954554 0.06484019     O
O17   0.4386798 0.5503426 0.09826223     O
O18   0.7982306 0.7040642 0.06778427     O
O19   0.5748666 0.695824 0.095318146     O
H20   0.7285135 0.905914 0.9697606     H
H21   0.79961145 0.2766595 0.9575023     H
H22   0.64895093 0.025721516 0.1253426     H
H23   0.6638979 0.50032616 0.19741255     H
H24   0.6729091 0.16075113 0.1802094     H
H25   0.98745686 0.1261626 0.95151037     H
H26   0.95734227 0.084210165 0.8822032     H
H27   0.9473234 0.98555267 0.9330723     H
H28   0.521173 0.35865256 0.9594857     H
H29   0.6619599 0.37663886 0.91613925     H
H30   0.56605744 0.48617223 0.9322622     H
C31   0.756591 0.076141395 0.98029304     C
C32   0.67254555 0.429743 0.17155637     C
C33   0.6662498 0.3287626 0.193807     C
C34   0.675839 0.23699915 0.16086993     C
C35   0.6927038 0.24469653 0.1049023     C
C36   0.69839066 0.35015857 0.08306416     C
C37   0.70299554 0.15117358 0.06971956     C
C38   0.7435935 0.16453527 0.016239718     C
C39   0.76357156 0.26629093 0.99769694     C
C40   0.71566576 0.35445324 0.025544595     C
C41   0.67592967 0.04430677 0.084878385     C
C42   0.7210673 0.9746579 0.99702585     C
C43   0.92711574 0.07017291 0.92410916     C
C44   0.60544676 0.41266382 0.9491582     C
N45   0.6842028 0.9606418 0.048283275     N
N46   0.6881982 0.44079083 0.11777657     N
Cl47  0.64636046 0.31718725 0.2635163    Cl
O48   0.79259115 0.08948285 0.9274697     O
O49   0.6866156 0.44180676 0.99522984     O
Zn50  0.60949016 0.60141736 0.09889637    Zn
Zn51  0.7687956 0.8011796 0.068426535    Zn
H52   0.88439715 0.50796914 0.52880174     H
H53   0.4567866 0.6309455 0.3798994     H
H54   0.83674186 0.7359834 0.27086467     H
H55   0.76416284 0.886771 0.78626245     H
C56   0.73139256 0.74460137 0.9581574     C
C57   0.60761863 0.77374244 0.69856906     C
C58   0.7835243 0.65449584 0.6953852     C
C59   0.7674533 0.6410284 0.63856983     C
C60   0.6796903 0.7079296 0.611262     C
C61   0.60064435 0.7767491 0.6413631     C
C62   0.83782357 0.56528056 0.60803664     C
C63   0.8297419 0.5656789 0.5515596     C
C64   0.74876857 0.63541025 0.5242394     C
C65   0.67156994 0.70611286 0.55385154     C
C66   0.5867025 0.77435464 0.52603394     C
C67   0.50773495 0.8434515 0.5567854     C
C68   0.5160401 0.8451212 0.6136432     C
C69   0.7410992 0.633298 0.46751103     C
C70   0.5855515 0.7706384 0.46848062     C
C71   0.53977364 0.6541968 0.35606533     C
C72   0.5298666 0.6421317 0.29976028     C
C73   0.6385751 0.6696553 0.26810983     C
C74   0.7534439 0.71302795 0.29457507     C
C75   0.7624614 0.72825664 0.3511786     C
C76   0.6547709 0.695992 0.38233426     C
C77   0.68121845 0.6279213 0.81313694     C
C78   0.6930042 0.6343224 0.87021327     C
C79   0.72471446 0.7345519 0.89763194     C
C80   0.7489818 0.82586175 0.8659995     C
C81   0.74408275 0.8164521 0.80966717     C
C82   0.7093842 0.7190198 0.7827363     C
C83   0.6348699 0.6560221 0.2080347     C
Br84  0.619758 0.49607724 0.7763044    Br
Br85  0.6727121 0.5028038 0.9088613    Br
Br86  0.78146195 0.969098 0.8957822    Br
Br87  0.38397402 0.93865234 0.5248881    Br
Br88  0.36167526 0.5940608 0.26949093    Br
N89   0.699169 0.71465254 0.7242241     N
N90   0.6618523 0.7010606 0.44081232     N
N91   0.8801125 0.7773391 0.37609404     N
N92   0.90837336 0.4812183 0.6328976     N
N93   0.4410861 0.92072403 0.6428799     N
O94   0.81090814 0.817539 0.9806283     O
O95   0.65791833 0.68004864 0.9856037     O
O96   0.52343196 0.8287538 0.7286368     O
O97   0.88486594 0.61110866 0.7216614     O
O98   0.81211376 0.5635216 0.4390806     O
O99   0.5105828 0.8362051 0.43992424     O
O100  0.5578659 0.5813542 0.18577105     O
O101  0.71085185 0.7188518 0.18082386     O
O102  0.875948 0.8327527 0.42135704     O
O103  0.99028146 0.7754695 0.35110515     O
O104  0.85511136 0.42700294 0.671064     O
O105  0.008891463 0.4420525 0.6093216     O
O106  0.494437 0.0131293535 0.65878654     O
O107  0.31725293 0.90038633 0.6501324     O
loop_
_geom_bond_atom_site_label_1
_geom_bond_atom_site_label_2
_geom_bond_distance
_geom_bond_site_symmetry_2
_ccdc_geom_bond_type
H0    C13    1.08357       .     S
H1    C12    1.08737       .     S
H2    C14    1.11055       .     S
H3    C14    1.11034       .     S
H4    C14    1.11033       .     S
H5    C15    1.11056   1_655     S
H6    C15    1.11063       .     S
H7    C15    1.10953       .     S
C8    C10    1.45280   1_655     D
C8    O16    1.28550       .     S
C8    O18    1.28726       .     S
C9    C11    1.44732       .     D
C9    O17    1.28755       .     S
C9    O19    1.28333       .     S
C10   C8     1.45280   1_455     D
C10   C12    1.34452       .     D
C10   C15    1.50931       .     S
C11   C9     1.44732       .     S
C11   C13    1.33923       .     S
C11   C14    1.51010       .     S
C12   H1     1.08737       .     S
C12   C10    1.34452       .     S
C12   C13    1.44289       .     S
C13   H0     1.08357       .     S
C13   C11    1.33923       .     S
C13   C12    1.44289       .     S
C14   H2     1.11055       .     S
C14   H3     1.11034       .     D
C14   H4     1.11033       .     S
C14   C11    1.51010       .     S
C15   H5     1.11056   1_455     D
C15   H6     1.11063       .     S
C15   H7     1.10953       .     S
C15   C10    1.50931       .     D
O16   C8     1.28550       .     D
O16   Zn51   1.78067       .     S
O17   C9     1.28755       .     S
O17   Zn50   1.83461       .     S
O18   C8     1.28726       .     S
O18   Zn51   1.26021       .     S
O19   C9     1.28333       .     S
O19   Zn50   1.24878       .     S
H20   C42    1.08154       .     S
H21   C39    1.08169       .     S
H22   C41    1.07739       .     S
H23   C32    1.08075       .     S
H24   C34    1.07884       .     S
H25   C43    1.11400       .     S
H26   C43    1.10910       .     S
H27   C43    1.11224   1_565     A
H28   C44    1.11378       .     A
H29   C44    1.10905       .     A
H30   C44    1.10578       .     A
C31   C38    1.40864   1_556     A
C31   C42    1.38369   1_545     S
C31   O48    1.38311       .     A
C32   H23    1.08075       .     A
C32   C33    1.39167       .     A
C32   N46    1.35723       .     A
C33   C32    1.39167       .     A
C33   C34    1.39344       .     A
C33   Cl47   1.75459       .     A
C34   H24    1.07884       .     S
C34   C33    1.39344       .     A
C34   C35    1.40801       .     A
C35   C34    1.40801       .     S
C35   C36    1.43882       .     A
C35   C37    1.44363       .     A
C36   C35    1.43882       .     S
C36   C40    1.44339       .     S
C36   N46    1.40821       .     S
C37   C35    1.44363       .     S
C37   C38    1.41291       .     S
C37   C41    1.41637       .     S
C38   C31    1.40864   1_554     S
C38   C37    1.41291       .     S
C38   C39    1.37417   1_554     S
C39   H21    1.08169       .     S
C39   C38    1.37417   1_556     S
C39   C40    1.39318   1_556     S
C40   C36    1.44339       .     S
C40   C39    1.39318   1_554     A
C40   O49    1.38037   1_554     A
C41   H22    1.07739       .     A
C41   C37    1.41637       .     A
C41   N45    1.36787   1_545     A
C42   H20    1.08154       .     S
C42   C31    1.38369   1_565     A
C42   N45    1.34987   1_556     A
C43   H25    1.11400       .     A
C43   H26    1.10910       .     A
C43   H27    1.11224   1_545     A
C43   O48    1.40982       .     A
C44   H28    1.11378       .     A
C44   H29    1.10905       .     S
C44   H30    1.10578       .     A
C44   O49    1.42033       .     A
N45   C41    1.36787   1_565     S
N45   C42    1.34987   1_554     A
N45   Zn51   2.26535       .     A
N46   C32    1.35723       .     S
N46   C36    1.40821       .     S
N46   Zn50   2.24732       .     S
Cl47  C33    1.75459       .     S
O48   C31    1.38311       .     D
O48   C43    1.40982       .     S
O49   C40    1.38037   1_556     S
O49   C44    1.42033       .     S
Zn50  O17    1.83461       .     A
Zn50  O19    1.24878       .     A
Zn50  N46    2.24732       .     A
Zn50  Zn51   3.05171       .     S
Zn50  O95    3.05025   1_554     A
Zn50  O100   2.25027       .     S
Zn51  O16    1.78067       .     A
Zn51  O18    1.26021       .     A
Zn51  N45    2.26535       .     S
Zn51  Zn50   3.05171       .     S
Zn51  O94    2.24370   1_554     D
Zn51  O101   3.06447       .     D
H52   C63    1.08323       .     S
H53   C71    1.08334       .     S
H54   C74    1.08316       .     D
H55   C81    1.08351       .     S
C56   C79    1.49994       .     S
C56   O94    1.29710       .     D
C56   O95    1.30121       .     S
C57   C61    1.41858       .     A
C57   N89    1.36844       .     A
C57   O96    1.34862       .     A
C58   C59    1.41610       .     A
C58   N89    1.36786       .     A
C58   O97    1.34789       .     A
C59   C58    1.41610       .     D
C59   C60    1.42083       .     S
C59   C62    1.42261       .     A
C60   C59    1.42083       .     S
C60   C61    1.41294       .     D
C60   C65    1.42158       .     A
C61   C57    1.41858       .     A
C61   C60    1.41294       .     A
C61   C68    1.41705       .     S
C62   C59    1.42261       .     A
C62   C63    1.39925       .     S
C62   N92    1.44039       .     S
C63   H52    1.08323       .     D
C63   C62    1.39925       .     S
C63   C64    1.40062       .     S
C64   C63    1.40062       .     D
C64   C65    1.40983       .     S
C64   C69    1.40452       .     D
C65   C60    1.42158       .     S
C65   C64    1.40983       .     A
C65   C66    1.41885       .     A
C66   C65    1.41885       .     S
C66   C67    1.42310       .     D
C66   C70    1.42470       .     A
C67   C66    1.42310       .     A
C67   C68    1.40800       .     S
C67   Br87   1.93798       .     A
C68   C61    1.41705       .     A
C68   C67    1.40800       .     S
C68   N93    1.43125       .     S
C69   C64    1.40452       .     D
C69   N90    1.36633       .     S
C69   O98    1.35003       .     D
C70   C66    1.42470       .     S
C70   N90    1.37095       .     S
C70   O99    1.34595       .     S
C71   H53    1.08334       .     A
C71   C72    1.39841       .     A
C71   C76    1.40093       .     A
C72   C71    1.39841       .     S
C72   C73    1.41643       .     A
C72   Br88   1.92160       .     S
C73   C72    1.41643       .     A
C73   C74    1.40847       .     A
C73   C83    1.49172       .     S
C74   H54    1.08316       .     S
C74   C73    1.40847       .     D
C74   C75    1.40886       .     D
C75   C74    1.40886       .     S
C75   C76    1.41594       .     S
C75   N91    1.44118       .     D
C76   C71    1.40093       .     S
C76   C75    1.41594       .     S
C76   N90    1.44756       .     D
C77   C78    1.41495       .     S
C77   C82    1.40879       .     A
C77   Br84   1.93014       .     A
C78   C77    1.41495       .     A
C78   C79    1.42583       .     A
C78   Br85   1.93384       .     A
C79   C56    1.49994       .     A
C79   C78    1.42583       .     D
C79   C80    1.42153       .     S
C80   C79    1.42153       .     A
C80   C81    1.39596       .     S
C80   Br86   1.92527       .     D
C81   H55    1.08351       .     A
C81   C80    1.39596       .     A
C81   C82    1.39669       .     A
C82   C77    1.40879       .     S
C82   C81    1.39669       .     A
C82   N89    1.44931       .     S
C83   C73    1.49172       .     S
C83   O100   1.29485       .     D
C83   O101   1.29979       .     S
Br84  C77    1.93014       .     S
Br85  C78    1.93384       .     D
Br86  C80    1.92527       .     S
Br87  C67    1.93798       .     D
Br88  C72    1.92160       .     S
N89   C57    1.36844       .     A
N89   C58    1.36786       .     A
N89   C82    1.44931       .     S
N90   C69    1.36633       .     D
N90   C70    1.37095       .     A
N90   C76    1.44756       .     A
N91   C75    1.44118       .     S
N91   O102   1.30132       .     A
N91   O103   1.30168       .     A
N92   C62    1.44039       .     S
N92   O104   1.30019       .     S
N92   O105   1.30105   1_655     D
N93   C68    1.43125       .     S
N93   O106   1.30087   1_565     S
N93   O107   1.30009       .     S
O94   Zn51   2.24370   1_556     S
O94   C56    1.29710       .     S
O95   Zn50   3.05025   1_556     S
O95   C56    1.30121       .     S
O96   C57    1.34862       .     S
O97   C58    1.34789       .     S
O98   C69    1.35003       .     S
O99   C70    1.34595       .     S
O100  Zn50   2.25027       .     S
O100  C83    1.29485       .     S
O101  Zn51   3.06447       .     S
O101  C83    1.29979       .     S
O102  N91    1.30132       .     S
O103  N91    1.30168       .     S
O104  N92    1.30019       .     S
O105  N92    1.30105   1_455     S
O106  N93    1.30087   1_545     S
O107  N93    1.30009       .     S
