data_I
_chemical_name_common  '/home/sibivarshan_m7/MOFDiff/MOFDiff/results/nh3_target_12.0mmol/cif/sample_10'
_cell_length_a 12.77508
_cell_length_b 21.82130
_cell_length_c 21.91842
_cell_angle_alpha 92.89211
_cell_angle_beta  93.14018
_cell_angle_gamma 102.63042
_space_group_name_H-M_alt      'P 1'


loop_
_space_group_symop_operation_xyz
  'x, y, z' 

loop_
_atom_site_label
_atom_site_fract_x
_atom_site_fract_y
_atom_site_fract_z
_atom_site_type_symbol
Zn0   0.8871628 0.0042375326 0.11836033    Zn
Zn1   0.64810705 0.97235876 0.119141825    Zn
Zn2   0.76396924 0.43867102 0.66111845    Zn
Zn3   0.76319695 0.540634 0.5756882    Zn
H4    0.075430766 0.52658683 0.5092765     H
H5    0.4533383 0.4483799 0.7278334     H
H6    0.27604845 0.4610419 0.7419938     H
H7    0.25227955 0.5137017 0.49466774     H
H8    0.18795116 0.62134767 0.72348213     H
H9    0.046790697 0.6029075 0.6982928     H
H10   0.0869618 0.6013918 0.7778999     H
H11   0.032195784 0.49178475 0.72887194     H
H12   0.1654721 0.51325125 0.76031107     H
H13   0.486246 0.37531865 0.5388289     H
H14   0.3464335 0.35633624 0.510846     H
H15   0.45097655 0.37858564 0.45884717     H
H16   0.36751136 0.4650263 0.47680566     H
H17   0.49981636 0.48712468 0.5092353     H
C18   0.5582921 0.46778855 0.6281432     C
C19   0.97222304 0.5090031 0.60973454     C
C20   0.08475319 0.51369256 0.6061323     C
C21   0.44550648 0.4627357 0.63122964     C
C22   0.3044782 0.46824554 0.6970293     C
C23   0.22476216 0.50712234 0.5398796     C
C24   0.40497527 0.45778182 0.68864846     C
C25   0.12434442 0.5176769 0.5484422     C
C26   0.3823571 0.47040617 0.57893217     C
C27   0.14830698 0.5062387 0.6582723     C
C28   0.28421378 0.4879543 0.5883129     C
C29   0.24577485 0.4880414 0.6486976     C
C30   0.11224163 0.52159613 0.72190195     C
C31   0.10815045 0.5910295 0.7305899     C
C32   0.4201482 0.45649472 0.51537603     C
C33   0.42637998 0.38747677 0.50572544     C
O34   0.6134343 0.51660883 0.6049418     O
O35   0.9171294 0.4602579 0.6330651     O
O36   0.60040885 0.4252501 0.6512925     O
O37   0.930155 0.55161667 0.5867143     O
H38   0.6215966 0.7003664 0.9379194     H
H39   0.9051823 0.77774394 0.7967395     H
H40   0.6411034 0.5811705 0.9176811     H
H41   0.736556 0.5771954 0.8597673     H
H42   0.49617836 0.51170856 0.8479311     H
H43   0.5921129 0.5085933 0.79112023     H
H44   0.70128745 0.4595192 0.8659216     H
H45   0.56603044 0.4134366 0.8503046     H
H46   0.6016279 0.46101907 0.9212886     H
H47   0.908305 0.94492495 0.914927     H
H48   0.779861 0.89770085 0.88893145     H
H49   0.9765945 0.93216634 0.8104752     H
H50   0.84557515 0.8864544 0.78339463     H
H51   0.7642951 0.9782138 0.809892     H
H52   0.8681403 0.9976212 0.75696737     H
H53   0.896104 0.024302602 0.83666486     H
C54   0.68376416 0.71764886 0.9073821     C
C55   0.84257555 0.7607451 0.8271071     C
C56   0.75651383 0.7755647 0.92247915     C
C57   0.7698571 0.70287454 0.81204295     C
C58   0.8353926 0.79760087 0.8810265     C
C59   0.69046533 0.68119127 0.8530121     C
C60   0.7498286 0.8121855 0.9799862     C
C61   0.77767926 0.66552824 0.7552188     C
C62   0.65067023 0.576596 0.8675642     C
C63   0.5823047 0.51343864 0.84111196     C
C64   0.6151212 0.45855033 0.8716751     C
C65   0.867625 0.9053171 0.88209176     C
C66   0.8891231 0.92462337 0.8169384     C
C67   0.8519794 0.9849763 0.80452174     C
N68   0.7835217 0.63563454 0.71019655     N
N69   0.74476707 0.84169745 0.025375366     N
O70   0.61565983 0.6255439 0.83848804     O
O71   0.91181827 0.8528482 0.8948485     O
H72   0.59470165 0.7383026 0.30946115     H
H73   0.93771696 0.7371003 0.42705157     H
H74   0.9372935 0.8069974 0.3422616     H
H75   0.5951251 0.6684056 0.3942512     H
C76   0.7655072 0.85176563 0.22990343     C
C77   0.7668853 0.62366045 0.5066096     C
C78   0.66983235 0.6984891 0.38310617     C
C79   0.8625861 0.77692425 0.35339433     C
C80   0.8628209 0.7371874 0.40159586     C
C81   0.66959745 0.7382258 0.33490467     C
C82   0.7664523 0.6982167 0.41615534     C
C83   0.76596624 0.7771964 0.32034498     C
C84   0.7671993 0.5834377 0.555445     C
C85   0.7651869 0.8920053 0.18108247     C
C86   0.7666698 0.6577294 0.4652786     C
C87   0.7657456 0.8176923 0.271229     C
O88   0.856848 0.58372074 0.5855124     O
O89   0.6755385 0.8917222 0.1510151     O
O90   0.67791396 0.5477051 0.5684306     O
O91   0.8544724 0.9277378 0.16809686     O
H92   0.8292559 0.14225894 0.3950232     H
H93   0.7040379 0.33441424 0.34360942     H
H94   0.7650545 0.14386684 0.50219446     H
H95   0.7118486 0.2121619 0.5236389     H
H96   0.8548592 0.24381533 0.60718286     H
H97   0.77883214 0.16452326 0.61417925     H
H98   0.9111751 0.17725627 0.58545333     H
H99   0.82149655 0.26456308 0.21501696     H
H100  0.7682061 0.3328264 0.23645425     H
H101  0.6221131 0.2993974 0.15317768     H
H102  0.75447905 0.31221554 0.124479674     H
H103  0.678558 0.23288906 0.13144241     H
C104  0.8011631 0.18389168 0.38351613     C
C105  0.73212904 0.29277712 0.3551203     C
C106  0.7546941  0.18686 0.32432187     C
C107  0.77859807 0.28980878 0.41431454     C
C108  0.7212653 0.24232665 0.310096     C
C109  0.8120411 0.23434703 0.42853743     C
C110  0.742696 0.13350663 0.27826026     C
C111  0.79059494 0.3431568 0.46037155     C
C112  0.7863795 0.19363642 0.5212449     C
C113  0.8360561 0.1949514 0.58610475     C
C114  0.746935 0.28306738 0.21739936     C
C115  0.69728136 0.28174263 0.15253182     C
N116  0.8002409 0.3853406 0.49703753     N
N117  0.73305124 0.09132818 0.24159892     N
O118  0.86130834 0.23085438 0.48559794     O
O119  0.6720124 0.24582407 0.25303248     O
H120  0.22425248 0.09940493 0.26743346     H
H121  0.19217674 0.9679389 0.033841718     H
H122  0.1525163 0.87757254 0.95611304     H
H123  0.07949046 0.8629278 0.84858346     H
H124  0.1835035 0.91847295 0.7677846     H
H125  0.36158374 0.9893268 0.7948764     H
H126  0.4355729 0.0055942535 0.9022337     H
H127  0.5716005 0.97239524 0.09772286     H
H128  0.11544787 0.91045505 0.12318202     H
H129  0.9847587 0.93782836 0.1904169     H
H130  0.4532432 0.9954674 0.17243247     H
H131  0.35278946 0.07281339 0.19920969     H
C132  0.4501165 0.95349956 0.0210802     C
C133  0.4896695 0.9722439 0.08192634     C
C134  0.4219829 0.98497486 0.12519968     C
C135  0.3138573 0.9805662 0.10838753     C
C136  0.2750088 0.9673271 0.046926875     C
C137  0.342613 0.9539046 0.0023600755     C
C138  0.13962561 0.9513275 0.15512517     C
C139  0.06585026 0.9664942 0.19400275     C
C140  0.20024751 0.05701387 0.23746508     C
C141  0.2736475 0.042033672 0.1983641     C
C142  0.24187498 0.99089617 0.15512888     C
C143  0.094083466 0.021530986 0.23279838     C
C144  0.5173772 0.9224525 0.98406565     C
C145  0.01002353 0.0487808 0.25775462     C
C146  0.300116 0.94235975 0.93731713     C
C147  0.19901614 0.90229285 0.9214171     C
C148   0.15741 0.89370877 0.8604703     C
C149  0.21606237 0.9249814 0.81489974     C
C150  0.31647474 0.96488696 0.8301778     C
C151  0.35839695 0.9736844 0.8910669     C
O152  0.037154794 0.10191858 0.2878665     O
O153  0.91326064 0.024783611 0.23924091     O
O154  0.6170145 0.9350225 0.0003536012     O
O155  0.4736973 0.8746088 0.9485381     O
C156  0.7641129 0.48444226 0.83158016     C
C157  0.7687554 0.99296266 0.90485924     C
C158  0.8633368 0.28275427 0.86544096     C
C159  0.66951793 0.19465877 0.87100554     C
C160  0.66877013 0.2572677 0.8617049     C
C161  0.8640955 0.22015598 0.87474626     C
C162  0.76570415 0.30157605 0.8588671     C
C163  0.7671505 0.17583703 0.87757945     C
C164  0.765054 0.36620018 0.8492201     C
C165  0.7678008 0.111212805 0.88722646     C
C166  0.7681554 0.05723663 0.8952746     C
C167  0.76469946 0.4201764 0.841172     C
H168  0.9402934 0.20644698 0.8799731     H
H169  0.5925615 0.27096605 0.8564735     H
H170  0.59393144 0.16095054 0.8728207     H
H171  0.93892324 0.31646252 0.86362594     H
O172  0.8526568 0.52395475 0.8260546     O
O173  0.6801979 0.95345825 0.910392     O
O174  0.6748681 0.5018145 0.82863784     O
O175  0.8579864 0.9755986 0.9078088     O
loop_
_geom_bond_atom_site_label_1
_geom_bond_atom_site_label_2
_geom_bond_distance
_geom_bond_site_symmetry_2
_ccdc_geom_bond_type
Zn0   Zn1    2.98140   1_545     S
Zn0   O91    2.01943   1_545     S
Zn0   N117   4.06019       .     S
Zn0   O152   4.31895   1_655     S
Zn0   O153   2.65519       .     S
Zn0   O175   4.60933   1_544     S
Zn1   Zn0    2.98140   1_565     S
Zn1   N69    3.88645       .     S
Zn1   O89    2.01840       .     S
Zn1   O154   2.67052       .     S
Zn1   O155   4.43858   1_554     S
Zn1   O173   4.62191   1_554     S
Zn2   Zn3    2.98074       .     S
Zn2   O35    2.04606       .     A
Zn2   O36    2.04325       .     A
Zn2   N116   3.80777       .     A
Zn2   O172   3.97070       .     A
Zn2   O174   4.16044       .     A
Zn3   Zn2    2.98074       .     A
Zn3   O34    2.01893       .     D
Zn3   O37    2.09267       .     S
Zn3   N68    3.48150       .     S
Zn3   O88    1.34950       .     A
Zn3   O90    1.13716       .     D
H4    C25    1.08463       .     S
H5    C24    1.08469       .     A
H6    C22    1.07602       .     S
H7    C23    1.07549       .     A
H8    C31    1.11090       .     A
H9    C31    1.10876       .     A
H10   C31    1.11065       .     S
H11   C30    1.10835       .     S
H12   C30    1.10056       .     S
H13   C33    1.10866       .     S
H14   C33    1.11095       .     S
H15   C33    1.11088       .     S
H16   C32    1.09995       .     S
H17   C32    1.10784       .     S
C18   C21    1.42644       .     S
C18   O34    1.28666       .     S
C18   O36    1.28243       .     S
C19   C20    1.42558   1_655     S
C19   O35    1.28655       .     S
C19   O37    1.28229       .     S
C20   C19    1.42558   1_455     S
C20   C25    1.38716       .     S
C20   C27    1.40234       .     S
C21   C18    1.42644       .     S
C21   C24    1.38720       .     A
C21   C26    1.40353       .     A
C22   H6     1.07602       .     A
C22   C24    1.37258       .     A
C22   C29    1.40430       .     A
C23   H7     1.07549       .     A
C23   C25    1.37302       .     D
C23   C28    1.40504       .     S
C24   H5     1.08469       .     S
C24   C21    1.38720       .     A
C24   C22    1.37258       .     D
C25   H4     1.08463       .     S
C25   C20    1.38716       .     A
C25   C23    1.37302       .     S
C26   C21    1.40353       .     A
C26   C28    1.41108       .     A
C26   C32    1.53653       .     A
C27   C20    1.40234       .     S
C27   C29    1.41018       .     S
C27   C30    1.53637       .     S
C28   C23    1.40504       .     S
C28   C26    1.41108       .     S
C28   C29    1.43675       .     S
C29   C22    1.40430       .     S
C29   C27    1.41018       .     S
C29   C28    1.43675       .     S
C30   H11    1.10835       .     S
C30   H12    1.10056       .     S
C30   C27    1.53637       .     S
C30   C31    1.53010       .     S
C31   H8     1.11090       .     S
C31   H9     1.10876       .     S
C31   H10    1.11065       .     S
C31   C30    1.53010       .     S
C32   H16    1.09995       .     S
C32   H17    1.10784       .     S
C32   C26    1.53653       .     S
C32   C33    1.53017       .     S
C33   H13    1.10866       .     A
C33   H14    1.11095       .     A
C33   H15    1.11088       .     A
C33   C32    1.53017       .     T
O34   Zn3    2.01893       .     S
O34   C18    1.28666       .     A
O35   Zn2    2.04606       .     S
O35   C19    1.28655       .     A
O36   Zn2    2.04325       .     T
O36   C18    1.28243       .     A
O37   Zn3    2.09267       .     S
O37   C19    1.28229       .     S
H38   C54    1.08337       .     S
H39   C55    1.08343       .     S
H40   C62    1.11380       .     S
H41   C62    1.11701       .     S
H42   C63    1.11121       .     S
H43   C63    1.11206       .     S
H44   C64    1.11057       .     S
H45   C64    1.11046       .     S
H46   C64    1.11079       .     S
H47   C65    1.11125       .     S
H48   C65    1.11652       .     S
H49   C66    1.11136       .     S
H50   C66    1.11109       .     S
H51   C67    1.11100       .     S
H52   C67    1.11035       .     S
H53   C67    1.11106   1_545     S
C54   H38    1.08337       .     S
C54   C56    1.40744       .     S
C54   C59    1.41622       .     S
C55   H39    1.08343       .     S
C55   C57    1.40642       .     S
C55   C58    1.41428       .     S
C56   C54    1.40744       .     A
C56   C58    1.41586       .     A
C56   C60    1.47467       .     A
C57   C55    1.40642       .     T
C57   C59    1.41128       .     S
C57   C61    1.47384       .     A
C58   C55    1.41428       .     S
C58   C56    1.41586       .     A
C58   O71    1.38362       .     T
C59   C54    1.41622       .     A
C59   C57    1.41128       .     S
C59   O70    1.38177       .     S
C60   C56    1.47467       .     S
C60   N69    1.17015   1_556     S
C61   C57    1.47384       .     S
C61   N68    1.17017       .     S
C62   H40    1.11380       .     S
C62   H41    1.11701       .     S
C62   C63    1.52834       .     S
C62   O70    1.41189       .     S
C63   H42    1.11121       .     S
C63   H43    1.11206       .     S
C63   C62    1.52834       .     D
C63   C64    1.52607       .     S
C64   H44    1.11057       .     S
C64   H45    1.11046       .     T
C64   H46    1.11079       .     S
C64   C63    1.52607       .     A
C65   H47    1.11125       .     A
C65   H48    1.11652       .     S
C65   C66    1.53145       .     S
C65   O71    1.41616       .     A
C66   H49    1.11136       .     A
C66   H50    1.11109       .     S
C66   C65    1.53145       .     A
C66   C67    1.52610       .     S
C67   H51    1.11100       .     A
C67   H52    1.11035       .     S
C67   H53    1.11107   1_565     T
C67   C66    1.52610       .     S
N68   Zn3    3.48150       .     D
N68   C61    1.17017       .     S
N69   Zn1    3.88645       .     D
N69   C60    1.17015   1_554     S
O70   C59    1.38177       .     S
O70   C62    1.41189       .     T
O71   C58    1.38362       .     S
O71   C65    1.41616       .     A
H72   C81    1.08112       .     A
H73   C80    1.08129       .     S
H74   C79    1.08112       .     S
H75   C78    1.08130       .     A
C76   C85    1.41846       .     A
C76   C87    1.20081       .     S
C77   C84    1.41846       .     A
C77   C86    1.20081       .     S
C78   H75    1.08130       .     A
C78   C81    1.40047       .     S
C78   C82    1.39786       .     T
C79   H74    1.08112       .     S
C79   C80    1.40047       .     D
C79   C83    1.39786       .     S
C80   H73    1.08129       .     S
C80   C79    1.40047       .     S
C80   C82    1.39758       .     S
C81   H72    1.08112       .     S
C81   C78    1.40047       .     S
C81   C83    1.39758       .     S
C82   C78    1.39786       .     S
C82   C80    1.39758       .     A
C82   C86    1.42709       .     A
C83   C79    1.39786       .     A
C83   C81    1.39758       .     S
C83   C87    1.42709       .     S
C84   C77    1.41846       .     S
C84   O88    1.28833       .     T
C84   O90    1.28804       .     S
C85   C76    1.41846       .     A
C85   O89    1.28833       .     S
C85   O91    1.28804       .     A
C86   C77    1.20081       .     T
C86   C82    1.42709       .     S
C87   C76    1.20081       .     S
C87   C83    1.42709       .     S
O88   Zn3    1.34950       .     A
O88   C84    1.28833       .     S
O89   Zn1    2.01840       .     S
O89   C85    1.28833       .     S
O90   Zn3    1.13716       .     S
O90   C84    1.28804       .     S
O91   Zn0    2.01943   1_565     S
O91   C85    1.28804       .     S
H92   C104   1.08330       .     S
H93   C105   1.08340       .     S
H94   C112   1.11375       .     S
H95   C112   1.11553       .     S
H96   C113   1.11095       .     S
H97   C113   1.11004       .     A
H98   C113   1.11051       .     A
H99   C114   1.11562       .     A
H100  C114   1.11356       .     S
H101  C115   1.11062       .     S
H102  C115   1.11002       .     S
H103  C115   1.11085       .     T
C104  H92    1.08330       .     S
C104  C106   1.40744       .     A
C104  C109   1.41905       .     S
C105  H93    1.08340       .     A
C105  C107   1.40744       .     T
C105  C108   1.41904       .     S
C106  C104   1.40744       .     S
C106  C108   1.41213       .     S
C106  C110   1.47805       .     A
C107  C105   1.40744       .     S
C107  C109   1.41210       .     S
C107  C111   1.47790       .     S
C108  C105   1.41904       .     S
C108  C106   1.41213       .     S
C108  O119   1.38221       .     S
C109  C104   1.41905       .     S
C109  C107   1.41210       .     A
C109  O118   1.38221       .     A
C110  C106   1.47805       .     D
C110  N117   1.17172       .     S
C111  C107   1.47790       .     S
C111  N116   1.17187       .     A
C112  H94    1.11375       .     A
C112  H95    1.11553       .     S
C112  C113   1.52107       .     S
C112  O118   1.41149       .     A
C113  H96    1.11095       .     A
C113  H97    1.11004       .     S
C113  H98    1.11051       .     A
C113  C112   1.52107       .     A
C114  H99    1.11562       .     S
C114  H100   1.11356       .     S
C114  C115   1.52110       .     A
C114  O119   1.41151       .     A
C115  H101   1.11062       .     S
C115  H102   1.11002       .     A
C115  H103   1.11085       .     S
C115  C114   1.52110       .     A
N116  Zn2    3.80777       .     S
N116  C111   1.17187       .     A
N117  Zn0    4.06019       .     A
N117  C110   1.17172       .     S
O118  C109   1.38221       .     S
O118  C112   1.41149       .     A
O119  C108   1.38221       .     A
O119  C114   1.41151       .     S
H120  C140   1.08339       .     A
H121  C136   1.08421       .     S
H122  C147   1.08303       .     A
H123  C148   1.08233       .     S
H124  C149   1.08256       .     D
H125  C150   1.08226       .     S
H126  C151   1.08303   1_545     S
H127  C133   1.08355       .     S
H128  C138   1.08346       .     A
H129  C139   1.08323   1_655     A
H130  C134   1.08374       .     D
H131  C141   1.08323       .     S
C132  C133   1.40783       .     S
C132  C137   1.41369       .     A
C132  C144   1.45980   1_554     A
C133  H127   1.08355       .     S
C133  C132   1.40783       .     S
C133  C134   1.37580       .     A
C134  H130   1.08374       .     A
C134  C133   1.37580       .     S
C134  C135   1.39126       .     A
C135  C134   1.39126       .     A
C135  C136   1.40331       .     S
C135  C142   1.45485       .     S
C136  H121   1.08421       .     A
C136  C135   1.40331       .     A
C136  C137   1.40002       .     S
C137  C132   1.41369       .     A
C137  C136   1.40002       .     S
C137  C146   1.48654   1_554     A
C138  H128   1.08346       .     S
C138  C139   1.38560       .     A
C138  C142   1.39948       .     A
C139  H129   1.08323   1_455     S
C139  C138   1.38560       .     S
C139  C143   1.40336   1_565     A
C140  H120   1.08339       .     A
C140  C141   1.38363       .     S
C140  C143   1.40249       .     A
C141  H131   1.08323       .     S
C141  C140   1.38363       .     A
C141  C142   1.40038   1_545     S
C142  C135   1.45485       .     D
C142  C138   1.39948       .     S
C142  C141   1.40038   1_565     D
C143  C139   1.40336   1_545     S
C143  C140   1.40249       .     S
C143  C145   1.45492       .     T
C144  C132   1.45980   1_556     S
C144  O154   1.26907   1_556     S
C144  O155   1.27409       .     A
C145  C143   1.45492       .     A
C145  O152   1.27366       .     A
C145  O153   1.26786   1_455     S
C146  C137   1.48654   1_556     A
C146  C147   1.40716       .     S
C146  C151   1.40687       .     A
C147  H122   1.08303       .     A
C147  C146   1.40716       .     S
C147  C148   1.39841       .     S
C148  H123   1.08233       .     T
C148  C147   1.39841       .     S
C148  C149   1.39712       .     D
C149  H124   1.08256       .     S
C149  C148   1.39712       .     D
C149  C150   1.39676       .     S
C150  H125   1.08226       .     S
C150  C149   1.39676       .     T
C150  C151   1.39846       .     S
C151  H126   1.08303   1_565     S
C151  C146   1.40687       .     A
C151  C150   1.39846       .     A
O152  Zn0    4.31895   1_455     A
O152  C145   1.27366       .     S
O153  Zn0    2.65519       .     A
O153  C145   1.26786   1_655     S
O154  Zn1    2.67052       .     A
O154  C144   1.26907   1_554     A
O155  Zn1    4.43858   1_556     S
O155  C144   1.27409       .     S
C156  C167   1.43006       .     T
C156  O172   1.27931       .     S
C156  O174   1.27716       .     D
C157  C166   1.43024   1_565     S
C157  O173   1.27938       .     S
C157  O175   1.27691       .     S
C158  C161   1.39330       .     S
C158  C162   1.39837       .     S
C158  H171   1.08240       .     S
C159  C160   1.39348       .     S
C159  C163   1.39837       .     S
C159  H170   1.08241       .     S
C160  C159   1.39348       .     S
C160  C162   1.40110       .     S
C160  H169   1.08113       .     S
C161  C158   1.39330       .     S
C161  C163   1.40131       .     S
C161  H168   1.08110       .     S
C162  C158   1.39837       .     S
C162  C160   1.40110       .     S
C162  C164   1.43820       .     S
C163  C159   1.39837       .     S
C163  C161   1.40131       .     S
C163  C165   1.43820       .     S
C164  C162   1.43820       .     S
C164  C167   1.20068       .     S
C165  C163   1.43820       .     S
C165  C166   1.20068       .     S
C166  C157   1.43024   1_545     S
C166  C165   1.20068       .     S
C167  C156   1.43006       .     S
C167  C164   1.20068       .     S
H168  C161   1.08110       .     S
H169  C160   1.08113       .     S
H170  C159   1.08241       .     S
H171  C158   1.08240       .     S
O172  Zn2    3.97070       .     S
O172  C156   1.27931       .     S
O173  Zn1    4.62191   1_556     S
O173  C157   1.27938       .     S
O174  Zn2    4.16044       .     S
O174  C156   1.27716       .     S
O175  Zn0    4.60933   1_566     S
O175  C157   1.27691       .     S
