# generated using pymatgen
data_Zn4H19C28SNO18
_symmetry_space_group_name_H-M   'P 1'
_cell_length_a   12.07001000
_cell_length_b   11.77637000
_cell_length_c   24.89059000
_cell_angle_alpha   102.37394000
_cell_angle_beta   101.52469000
_cell_angle_gamma   95.42709000
_symmetry_Int_Tables_number   1
_chemical_formula_structural   Zn4H19C28SNO18
_chemical_formula_sum   'Zn8 H38 C56 S2 N2 O36'
_cell_volume   3351.03855288
_cell_formula_units_Z   2
loop_
 _symmetry_equiv_pos_site_id
 _symmetry_equiv_pos_as_xyz
  1  'x, y, z'
loop_
 _atom_site_type_symbol
 _atom_site_label
 _atom_site_symmetry_multiplicity
 _atom_site_fract_x
 _atom_site_fract_y
 _atom_site_fract_z
 _atom_site_occupancy
  Zn  Zn0  1  0.82826257  0.37985572  0.86593590  1
  Zn  Zn1  1  0.67373294  0.13144678  0.84118990  1
  Zn  Zn2  1  0.93687713  0.16296300  0.90144590  1
  Zn  Zn3  1  0.86377436  0.16603243  0.77153650  1
  Zn  Zn4  1  0.86334930  0.13421747  0.27588020  1
  Zn  Zn5  1  0.91810300  0.16713057  0.40939242  1
  Zn  Zn6  1  0.66203064  0.15158802  0.34160690  1
  Zn  Zn7  1  0.84229960  0.37767592  0.35550317  1
  H  H8  1  0.20103964  0.02508373  0.83488950  1
  H  H9  1  0.29387444  0.26259410  0.75321540  1
  H  H10  1  0.28085040  0.36164632  0.91583014  1
  H  H11  1  0.37296808  0.05136683  0.77318060  1
  H  H12  1  0.45227122  0.39097664  0.85363150  1
  H  H13  1  0.35965008  0.15332025  0.93522350  1
  H  H14  1  0.20049231  0.03020025  0.34605660  1
  H  H15  1  0.44412640  0.38383800  0.34167188  1
  H  H16  1  0.37958804  0.16196415  0.43706235  1
  H  H17  1  0.27252364  0.25209048  0.25190842  1
  H  H18  1  0.29835913  0.37291533  0.41691260  1
  H  H19  1  0.35027630  0.04196686  0.27108050  1
  H  H20  1  0.63721580  0.66866680  0.79067440  1
  H  H21  1  0.72458180  0.68528300  0.74205480  1
  H  H22  1  0.81577900  0.53134880  0.76471520  1
  H  H23  1  0.71951490  0.51200590  0.80868584  1
  H  H24  1  0.67672616  0.76586290  0.88873386  1
  H  H25  1  0.76757720  0.61608034  0.91246134  1
  H  H26  1  0.90486634  0.80533380  0.77763990  1
  H  H27  1  0.02847898  0.75959045  0.88649200  1
  H  H28  1  0.80246210  0.86622816  0.92096100  1
  H  H29  1  0.89743710  0.71560080  0.94276350  1
  H  H30  1  0.70840424  0.01185398  0.05997288  1
  H  H31  1  0.93529790  0.40350962  0.12617211  1
  H  H32  1  0.65322614  0.20511624  0.13407360  1
  H  H33  1  0.99047875  0.21024951  0.05207587  1
  H  H34  1  0.70433176  0.35176580  0.06340541  1
  H  H35  1  0.93937564  0.06360199  0.12274853  1
  H  H36  1  0.92354510  0.36242095  0.56323814  1
  H  H37  1  0.72039150  0.05303421  0.62652725  1
  H  H38  1  0.02708149  0.19446965  0.61599080  1
  H  H39  1  0.61691165  0.22100180  0.57379466  1
  H  H40  1  0.85438040  0.01549186  0.54377700  1
  H  H41  1  0.78995650  0.40010333  0.64578545  1
  H  H42  1  0.72233665  0.84736900  0.32981178  1
  H  H43  1  0.65300490  0.59884370  0.30294898  1
  H  H44  1  0.99249130  0.75601980  0.48752540  1
  H  H45  1  0.04709852  0.59753376  0.25743896  1
  C  C46  1  0.55212790  0.18057047  0.87835910  1
  C  C47  1  0.10178215  0.23771179  0.81063690  1
  C  C48  1  0.34335333  0.17805244  0.89404270  1
  C  C49  1  0.31026658  0.23763655  0.79435134  1
  C  C50  1  0.25911564  0.10711297  0.83925020  1
  C  C51  1  0.39439073  0.30875623  0.84917860  1
  C  C52  1  0.22063136  0.22261329  0.82902646  1
  C  C53  1  0.43301576  0.19357066  0.85954535  1
  C  C54  1  0.30290288  0.29349023  0.88347450  1
  C  C55  1  0.35088545  0.12201245  0.80495137  1
  C  C56  1  0.54931800  0.17171599  0.36488488  1
  C  C57  1  0.09901670  0.24218698  0.32352632  1
  C  C58  1  0.35295364  0.18250808  0.39527960  1
  C  C59  1  0.29534390  0.23068980  0.29350534  1
  C  C60  1  0.31087790  0.29739225  0.38447434  1
  C  C61  1  0.33727452  0.11594628  0.30417770  1
  C  C62  1  0.25774986  0.10914092  0.34534687  1
  C  C63  1  0.39015590  0.30397790  0.34332640  1
  C  C64  1  0.21779682  0.22363026  0.33470708  1
  C  C65  1  0.43036228  0.18973006  0.35393566  1
  C  C66  1  0.94122225  0.51995820  0.87110410  1
  C  C67  1  0.71427864  0.89936550  0.81330990  1
  C  C68  1  0.72474813  0.68135774  0.78636030  1
  C  C69  1  0.78405243  0.57728773  0.80118835  1
  C  C70  1  0.76851000  0.78420603  0.88795410  1
  C  C71  1  0.90550506  0.81457460  0.82324440  1
  C  C72  1  0.77814170  0.79917830  0.82814860  1
  C  C73  1  0.88296600  0.62087780  0.85467976  1
  C  C74  1  0.82980084  0.68137276  0.90337485  1
  C  C75  1  0.96976810  0.71802217  0.84474397  1
  C  C76  1  0.89024160  0.26227254  0.20901763  1
  C  C77  1  0.75346315  0.15309316  0.97713180  1
  C  C78  1  0.72888660  0.20596996  0.11502076  1
  C  C79  1  0.91483170  0.20939690  0.07112824  1
  C  C80  1  0.75801754  0.28727397  0.07710998  1
  C  C81  1  0.88570070  0.12810801  0.10903919  1
  C  C82  1  0.76017666  0.10014369  0.07521160  1
  C  C83  1  0.88352820  0.31522202  0.11093792  1
  C  C84  1  0.78987140  0.18191616  0.03830062  1
  C  C85  1  0.85383330  0.23344952  0.14784883  1
  C  C86  1  0.90223450  0.23123280  0.70867530  1
  C  C87  1  0.80419964  0.31333256  0.62239045  1
  C  C88  1  0.74201430  0.18395756  0.48095414  1
  C  C89  1  0.93425393  0.20007350  0.60563770  1
  C  C90  1  0.70971936  0.21528508  0.58405787  1
  C  C91  1  0.87842834  0.29295800  0.57824890  1
  C  C92  1  0.76552760  0.12236249  0.61144924  1
  C  C93  1  0.78464025  0.19514151  0.54092866  1
  C  C94  1  0.85934180  0.22016187  0.64875710  1
  C  C95  1  0.83980036  0.10200063  0.56731010  1
  C  C96  1  0.80292606  0.50621873  0.25345970  1
  C  C97  1  0.83391770  0.90946460  0.43406835  1
  C  C98  1  0.81241727  0.62905400  0.28117925  1
  C  C99  1  0.79691390  0.78898190  0.40171120  1
  C  C100  1  0.72894126  0.66069630  0.30727097  1
  C  C101  1  0.74296343  0.77292190  0.34733400  1
  S  S102  1  0.82865540  0.67233914  0.43401507  1
  S  S103  1  0.94209534  0.72232443  0.29015842  1
  N  N104  1  0.96476537  0.93094670  0.85312665  1
  N  N105  1  0.04041302  0.66949123  0.80615120  1
  O  O106  1  0.61254400  0.25581563  0.92270880  1
  O  O107  1  0.04148310  0.16314800  0.76622003  1
  O  O108  1  0.59149890  0.09451167  0.84999794  1
  O  O109  1  0.06252818  0.32445190  0.83893070  1
  O  O110  1  0.57969110  0.08876540  0.33117288  1
  O  O111  1  0.61960940  0.23900767  0.40785715  1
  O  O112  1  0.02873208  0.17491701  0.28054485  1
  O  O113  1  0.06865040  0.32515928  0.35722905  1
  O  O114  1  0.88239956  0.41427395  0.85627690  1
  O  O115  1  0.60610324  0.87395084  0.78687096  1
  O  O116  1  0.04640627  0.54641950  0.90047973  1
  O  O117  1  0.77012396  0.00610411  0.83106320  1
  O  O118  1  0.99234610  0.00405741  0.82381546  1
  O  O119  1  0.96851990  0.96910130  0.90667737  1
  O  O120  1  0.99664330  0.62729310  0.75252336  1
  O  O121  1  0.15038478  0.67839230  0.82462570  1
  O  O122  1  0.81453735  0.26675203  0.23836368  1
  O  O123  1  0.82916750  0.14862876  0.94778600  1
  O  O124  1  0.64668350  0.13304052  0.95453510  1
  O  O125  1  0.99702130  0.28234030  0.23161450  1
  O  O126  1  0.94119245  0.14200447  0.72423420  1
  O  O127  1  0.70330110  0.27323157  0.46537226  1
  O  O128  1  0.89975035  0.32948160  0.74325055  1
  O  O129  1  0.74474320  0.08575449  0.44635597  1
  O  O130  1  0.88046443  0.58259290  0.39794567  1
  O  O131  1  0.92094660  0.72586780  0.49677575  1
  O  O132  1  0.91677100  0.84077460  0.28203180  1
  O  O133  1  0.01291382  0.73764740  0.34888703  1
  O  O134  1  0.01643920  0.66349320  0.24339658  1
  O  O135  1  0.77444404  0.43086028  0.28001080  1
  O  O136  1  0.86666430  0.98461640  0.40827970  1
  O  O137  1  0.81529870  0.47441250  0.20271246  1
  O  O138  1  0.82580966  0.94106410  0.48557806  1
  O  O139  1  0.71952290  0.61379725  0.44248578  1
  O  O140  1  0.82566816  0.21006556  0.84502570  1
  O  O141  1  0.82143840  0.20766010  0.34559795  1
