# generated using pymatgen
data_ZnH9C15NO5
_symmetry_space_group_name_H-M   'P 1'
_cell_length_a   10.54506000
_cell_length_b   11.38456000
_cell_length_c   14.38476000
_cell_angle_alpha   90.96593000
_cell_angle_beta   105.73026000
_cell_angle_gamma   105.90091000
_symmetry_Int_Tables_number   1
_chemical_formula_structural   ZnH9C15NO5
_chemical_formula_sum   'Zn2 H18 C30 N2 O10'
_cell_volume   1590.86051264
_cell_formula_units_Z   2
loop_
 _symmetry_equiv_pos_site_id
 _symmetry_equiv_pos_as_xyz
  1  'x, y, z'
loop_
 _atom_site_type_symbol
 _atom_site_label
 _atom_site_symmetry_multiplicity
 _atom_site_fract_x
 _atom_site_fract_y
 _atom_site_fract_z
 _atom_site_occupancy
  Zn  Zn0  1  0.59994334  0.96919644  0.10195836  1
  Zn  Zn1  1  0.29473940  0.93339860  0.00122623  1
  H  H2  1  0.64834760  0.00973368  0.59065290  1
  H  H3  1  0.70977650  0.88290745  0.31450865  1
  H  H4  1  0.00331664  0.81821233  0.18144384  1
  H  H5  1  0.24294496  0.88351494  0.51296777  1
  H  H6  1  0.73318000  0.08610260  0.75814570  1
  H  H7  1  0.91433760  0.13819027  0.91038170  1
  H  H8  1  0.17113435  0.98895025  0.79185426  1
  H  H9  1  0.68036336  0.94219360  0.44367355  1
  H  H10  1  0.20176816  0.93045420  0.66227940  1
  H  H11  1  0.17363644  0.84395710  0.33912674  1
  H  H12  1  0.79823350  0.85911520  0.12431398  1
  H  H13  1  0.11974740  0.06204081  0.01732614  1
  H  H14  1  0.83498760  0.14140749  0.98824620  1
  H  H15  1  0.87530110  0.70946190  0.01698427  1
  H  H16  1  0.57868760  0.40611240  0.09732410  1
  H  H17  1  0.31762105  0.49940932  0.00977477  1
  H  H18  1  0.27936932  0.27046907  0.98412776  1
  H  H19  1  0.61593115  0.63488543  0.12534727  1
  C  C20  1  0.73996884  0.81490076  0.14042336  1
  C  C21  1  0.04838038  0.05230594  0.86565506  1
  C  C22  1  0.84479220  0.84870540  0.23778571  1
  C  C23  1  0.82693493  0.06152034  0.76343465  1
  C  C24  1  0.93008540  0.09037554  0.85099554  1
  C  C25  1  0.07208812  0.00285888  0.78248006  1
  C  C26  1  0.97207560  0.98199070  0.68819090  1
  C  C27  1  0.84659714  0.00839973  0.68223387  1
  C  C28  1  0.99366260  0.94302660  0.59884870  1
  C  C29  1  0.88849390  0.92928195  0.50729430  1
  C  C30  1  0.76374750  0.95065343  0.50857747  1
  C  C31  1  0.74384785  0.98934770  0.59410405  1
  C  C32  1  0.11904955  0.92322063  0.59717757  1
  C  C33  1  0.14378095  0.89600486  0.51030250  1
  C  C34  1  0.04352188  0.88326335  0.42125624  1
  C  C35  1  0.91278803  0.89737195  0.41731116  1
  C  C36  1  0.07354450  0.85429260  0.33603373  1
  C  C37  1  0.97583950  0.83767450  0.24595883  1
  C  C38  1  0.81297475  0.87814180  0.32340026  1
  C  C39  1  0.15281606  0.08602524  0.96474180  1
  C  C40  1  0.98909740  0.90795720  0.03917637  1
  C  C41  1  0.87534100  0.96414477  0.03074871  1
  C  C42  1  0.86643620  0.06472063  0.96765530  1
  C  C43  1  0.96516480  0.77901495  0.06145406  1
  C  C44  1  0.46435204  0.74167700  0.07860272  1
  C  C45  1  0.43070470  0.16337481  0.03062980  1
  C  C46  1  0.50939333  0.62545370  0.08621147  1
  C  C47  1  0.38615128  0.27988455  0.02259126  1
  C  C48  1  0.42456970  0.51023320  0.04859290  1
  C  C49  1  0.47152746  0.39525187  0.05907726  1
  N  N50  1  0.10524237  0.97038710  0.02702019  1
  N  N51  1  0.78606486  0.92626560  0.07844735  1
  O  O52  1  0.69080776  0.69829214  0.11369619  1
  O  O53  1  0.71530940  0.89985730  0.08305059  1
  O  O54  1  0.20067036  0.20277011  0.99272025  1
  O  O55  1  0.17599833  0.00112593  0.02316177  1
  O  O56  1  0.89601356  0.06305087  0.89134127  1
  O  O57  1  0.03813100  0.75112224  0.13376379  1
  O  O58  1  0.32741562  0.72264254  0.03342888  1
  O  O59  1  0.56671860  0.18186288  0.07760962  1
  O  O60  1  0.56067370  0.84774417  0.13053127  1
  O  O61  1  0.33346060  0.05676123  0.98050720  1
