# generated using pymatgen
data_Zn12H127C192S4I3(NO11)6
_symmetry_space_group_name_H-M   'P 1'
_cell_length_a   25.03146000
_cell_length_b   28.37977000
_cell_length_c   28.29520000
_cell_angle_alpha   90.95193000
_cell_angle_beta   90.64498000
_cell_angle_gamma   89.85056000
_symmetry_Int_Tables_number   1
_chemical_formula_structural   Zn12H127C192S4I3(NO11)6
_chemical_formula_sum   'Zn12 H127 C192 S4 I3 N6 O66'
_cell_volume   20096.43795393
_cell_formula_units_Z   1
loop_
 _symmetry_equiv_pos_site_id
 _symmetry_equiv_pos_as_xyz
  1  'x, y, z'
loop_
 _atom_site_type_symbol
 _atom_site_label
 _atom_site_symmetry_multiplicity
 _atom_site_fract_x
 _atom_site_fract_y
 _atom_site_fract_z
 _atom_site_occupancy
  _atom_site_charge
  Zn  Zn0  1  0.70956230  0.59482604  0.70748310  1  11.622068
  Zn  Zn1  1  0.60336816  0.60407287  0.68029110  1  -39.562683
  Zn  Zn2  1  0.64153856  0.12683974  0.68394810  1  1.432009
  Zn  Zn3  1  0.72626390  0.06698377  0.72667530  1  1.471729
  Zn  Zn4  1  0.64551234  0.08549957  0.18787993  1  1.260744
  Zn  Zn5  1  0.75468683  0.11186634  0.21907677  1  1.261068
  Zn  Zn6  1  0.22989272  0.61508010  0.29563470  1  1.035404
  Zn  Zn7  1  0.18667403  0.58344600  0.19983748  1  2.123079
  Zn  Zn8  1  0.18556535  0.59338170  0.65978060  1  -0.940459
  Zn  Zn9  1  0.30421564  0.59746430  0.66100323  1  1.449608
  Zn  Zn10  1  0.20178203  0.15045677  0.21056595  1  1.289791
  Zn  Zn11  1  0.19359353  0.04696390  0.22469732  1  1.296371
  H  H12  1  0.06153213  0.72129077  0.29010210  1  -0.479552
  H  H13  1  0.15969147  0.72682375  0.28037304  1  1.360862
  H  H14  1  0.22048253  0.68352675  0.33374807  1  -0.301682
  H  H15  1  0.08482451  0.63087640  0.40855810  1  0.055738
  H  H16  1  0.02440837  0.67330350  0.35430995  1  0.247367
  H  H17  1  0.26130947  0.52135116  0.41481438  1  0.063838
  H  H18  1  0.40815553  0.49817130  0.53320557  1  0.031226
  H  H19  1  0.35350338  0.45609954  0.59014040  1  0.037390
  H  H20  1  0.25586918  0.46787410  0.59175600  1  0.002275
  H  H21  1  0.21244194  0.52425910  0.53826930  1  0.073182
  H  H22  1  0.26400632  0.72316070  0.43575978  1  0.065881
  H  H23  1  0.23766825  0.80608080  0.45076713  1  0.008603
  H  H24  1  0.14941071  0.82477640  0.48524776  1  0.056025
  H  H25  1  0.08713958  0.76031214  0.50481140  1  0.028440
  H  H26  1  0.11267134  0.67719560  0.48955274  1  0.073104
  H  H27  1  0.34753188  0.62972110  0.47666547  1  0.064546
  H  H28  1  0.41193330  0.66609370  0.42447984  1  0.008147
  H  H29  1  0.47985572  0.61744810  0.38382575  1  0.034454
  H  H30  1  0.48157290  0.53063400  0.39455706  1  0.025049
  H  H31  1  0.41683270  0.49331093  0.44635910  1  0.053397
  H  H32  1  0.24615580  0.65098166  0.03777969  1  0.038505
  H  H33  1  0.35001096  0.48378920  0.96339430  1  0.043094
  H  H34  1  0.31836358  0.62591380  0.00555313  1  0.034742
  H  H35  1  0.18706840  0.52475910  0.88294730  1  0.062778
  H  H36  1  0.12882805  0.77574986  0.98984870  1  0.088457
  H  H37  1  0.03613408  0.76741374  0.00432074  1  0.016163
  H  H38  1  0.07090535  0.72788130  0.04350996  1  0.037114
  H  H39  1  0.04018304  0.70556710  0.98922840  1  -0.002960
  H  H40  1  0.14496219  0.61112740  0.81133080  1  0.069125
  H  H41  1  0.13658677  0.54828835  0.81585926  1  0.053771
  H  H42  1  0.07932479  0.58533940  0.80596310  1  0.027201
  H  H43  1  0.08956496  0.55667010  0.89039310  1  0.020575
  H  H44  1  0.08121069  0.61682470  0.88566554  1  0.014690
  H  H45  1  0.14600575  0.77273020  0.90293926  1  0.061056
  H  H46  1  0.19864630  0.73620850  0.87871930  1  0.069032
  H  H47  1  0.14307171  0.75435200  0.84223600  1  0.055772
  H  H48  1  0.12983179  0.67481846  0.85989356  1  0.033447
  H  H49  1  0.08098541  0.70643413  0.89393955  1  0.014218
  H  H50  1  0.40397300  0.59294856  0.01561058  1  0.067956
  H  H51  1  0.44078797  0.53275810  0.06214666  1  0.029009
  H  H52  1  0.39536360  0.49048463  0.03634572  1  0.045535
  H  H53  1  0.37063316  0.53629230  0.07601464  1  0.040736
  H  H54  1  0.24933113  0.63200880  0.53108835  1  0.103052
  H  H55  1  0.20678840  0.55459094  0.48549455  1  0.027190
  H  H56  1  0.29902592  0.66046470  0.49887290  1  0.086420
  H  H57  1  0.24539825  0.52286850  0.44305730  1  0.069418
  H  H58  1  0.29773495  0.67240460  0.40017810  1  0.146345
  H  H59  1  0.28614324  0.62469990  0.35943514  1  0.161114
  H  H60  1  0.35377976  0.62002460  0.43821773  1  0.078479
  H  H61  1  0.32608894  0.57049250  0.40610304  1  0.014264
  H  H62  1  0.15224439  0.71843123  0.42143765  1  0.643648
  H  H63  1  0.21678156  0.63362056  0.30932802  1  1.378450
  H  H64  1  0.27947628  0.57999825  0.57340960  1  0.013532
  H  H65  1  0.34738560  0.50570720  0.45419650  1  0.012253
  H  H66  1  0.23140536  0.69651496  0.46081653  1  0.156841
  H  H67  1  0.21965680  0.56515086  0.38049623  1  -0.215168
  H  H68  1  0.19270666  0.69494620  0.55436910  1  0.159498
  H  H69  1  0.16126359  0.73125840  0.51002717  1  0.123979
  H  H70  1  0.12130194  0.69325435  0.54565180  1  0.072458
  H  H71  1  0.13105908  0.65909225  0.46654505  1  0.031518
  H  H72  1  0.16136089  0.62267447  0.50922894  1  0.016631
  H  H73  1  0.09887550  0.61235040  0.36532490  1  0.116327
  H  H74  1  0.13729541  0.56513786  0.33750793  1  0.163865
  H  H75  1  0.07643908  0.55296570  0.36804003  1  0.068741
  H  H76  1  0.14159407  0.53012264  0.42184785  1  0.024335
  H  H77  1  0.12193235  0.58572406  0.44388634  1  0.036608
  H  H78  1  0.61766330  0.61564570  0.75943106  1  6.569034
  H  H79  1  0.44230843  0.57468706  0.77641010  1  -0.041490
  H  H80  1  0.40041510  0.52008367  0.59785783  1  0.186623
  H  H81  1  0.65482090  0.63209504  0.55498016  1  0.318455
  H  H82  1  0.24502810  0.77421950  0.65146860  1  0.153658
  H  H83  1  0.54781150  0.64818573  0.56731110  1  -0.193835
  H  H84  1  0.48856962  0.66118824  0.60129905  1  -0.263986
  H  H85  1  0.43363658  0.61565820  0.54184050  1  0.182652
  H  H86  1  0.25037232  0.52597123  0.65545830  1  -0.019126
  H  H87  1  0.46855927  0.66454977  0.51621680  1  0.111730
  H  H88  1  0.49308595  0.60509500  0.50742143  1  0.205464
  H  H89  1  0.33439142  0.70485795  0.59466976  1  0.053121
  H  H90  1  0.39223632  0.66805110  0.60436887  1  0.044859
  H  H91  1  0.43897500  0.73478930  0.64503950  1  0.090444
  H  H92  1  0.41915712  0.74867420  0.58523740  1  0.059565
  H  H93  1  0.38146767  0.77215624  0.63446630  1  0.085566
  H  H94  1  0.38768563  0.15237280  0.29413104  1  0.056703
  H  H95  1  0.28708836  0.00568570  0.25927615  1  0.112876
  H  H96  1  0.64674460  0.26743770  0.11345515  1  0.153055
  H  H97  1  0.52469930  0.27733037  0.26792840  1  0.061868
  H  H98  1  0.46492207  0.24440052  0.28124280  1  0.058093
  H  H99  1  0.52200490  0.24287455  0.32069190  1  0.058169
  H  H100  1  0.51604870  0.16896008  0.27253485  1  0.028150
  H  H101  1  0.57567436  0.20136020  0.25986390  1  0.034582
  H  H102  1  0.52550614  0.23733900  0.18877496  1  0.062963
  H  H103  1  0.47069034  0.20120140  0.20078142  1  0.055237
  H  H104  1  0.30719015  0.19677895  0.43302754  1  0.062040
  H  H105  1  0.23796175  0.18146718  0.42156160  1  0.073994
  H  H106  1  0.27544314  0.15156002  0.46691278  1  0.064611
  H  H107  1  0.26702863  0.10012852  0.39642712  1  0.049579
  H  H108  1  0.33550120  0.11630073  0.40601534  1  0.030396
  H  H109  1  0.32703040  0.18017969  0.34701845  1  0.057959
  H  H110  1  0.25962440  0.16613351  0.33485580  1  0.089136
  H  H111  1  0.47838150  0.97817510  0.16869806  1  0.171379
  H  H112  1  0.60127133  0.04994067  0.00257965  1  0.164678
  H  H113  1  0.38430047  0.00367287  0.13527758  1  0.167077
  H  H114  1  0.86806494  0.91647494  0.10468169  1  0.048599
  H  H115  1  0.81113520  0.88906455  0.13092978  1  0.039401
  H  H116  1  0.80641340  0.94798950  0.10841922  1  0.048918
  H  H117  1  0.86685770  0.91311026  0.19700697  1  0.031778
  H  H118  1  0.81176450  0.95086420  0.19632193  1  0.027819
  H  H119  1  0.90085400  0.23032080  0.36969128  1  0.066476
  H  H120  1  0.95074410  0.24110974  0.32577345  1  0.060290
  H  H121  1  0.88602500  0.26949784  0.32333446  1  0.051325
  H  H122  1  0.87253344  0.21126166  0.26666063  1  0.054736
  H  H123  1  0.84841320  0.18319842  0.31968936  1  0.067509
  H  H124  1  0.05662286  0.16895516  0.18045379  1  0.081588
  H  H125  1  0.03612113  0.22109340  0.21136081  1  0.072682
  H  H126  1  0.10557365  0.21195622  0.19951507  1  0.065684
  H  H127  1  0.08100689  0.19896643  0.28277770  1  0.045672
  H  H128  1  0.11219597  0.14915252  0.25772035  1  0.001847
  H  H129  1  0.01658702  0.93436414  0.22613667  1  0.111766
  H  H130  1  0.95047340  0.91192544  0.23722560  1  0.073953
  H  H131  1  0.00015926  0.87458460  0.20987193  1  0.087395
  H  H132  1  0.93981050  0.90022940  0.14728448  1  0.023623
  H  H133  1  0.00247717  0.92780830  0.14054397  1  0.050667
  H  H134  1  0.84479580  0.08960186  0.10422843  1  0.083110
  H  H135  1  0.82923955  0.03161680  0.08177059  1  0.060751
  H  H136  1  0.77590070  0.07250059  0.09488903  1  0.046945
  H  H137  1  0.78659517  0.01005986  0.15468776  1  0.007754
  H  H138  1  0.79182010  0.06363711  0.18085103  1  -0.092089
  C  C139  1  0.24560115  0.63709920  0.53064173  1  0.061482
  C  C140  1  0.20428526  0.55960816  0.34632390  1  0.664252
  C  C141  1  0.14344467  0.70538060  0.30800295  1  -4.948294
  C  C142  1  0.17780748  0.68075240  0.33814824  1  7.629498
  C  C143  1  0.15700160  0.65219676  0.37350446  1  1.123867
  C  C144  1  0.10149579  0.65081110  0.37997493  1  -0.005355
  C  C145  1  0.06719225  0.67524670  0.34965685  1  -0.858299
  C  C146  1  0.08813084  0.70233464  0.31352007  1  2.084554
  C  C147  1  0.20532818  0.64490575  0.45061707  1  -0.100093
  C  C148  1  0.23543705  0.61823183  0.48312910  1  0.139478
  C  C149  1  0.25642810  0.57384520  0.46974313  1  -0.015962
  C  C150  1  0.24547045  0.55566300  0.42482552  1  -0.205585
  C  C151  1  0.21379118  0.58072686  0.39299320  1  0.100074
  C  C152  1  0.19322947  0.62573960  0.40564328  1  -1.351862
  C  C153  1  0.34163094  0.53560424  0.50112580  1  -0.045154
  C  C154  1  0.36542976  0.50431640  0.53336610  1  0.056739
  C  C155  1  0.33467350  0.48042583  0.56600160  1  0.087119
  C  C156  1  0.27968216  0.48742816  0.56724674  1  0.188400
  C  C157  1  0.25532790  0.51927435  0.53673710  1  -0.131448
  C  C158  1  0.28561875  0.54358380  0.50351673  1  0.112241
  C  C159  1  0.19024894  0.69438964  0.46183026  1  0.206983
  C  C160  1  0.22542234  0.73099540  0.45102236  1  -0.287013
  C  C161  1  0.21056946  0.77789867  0.45931658  1  0.069340
  C  C162  1  0.16074689  0.78843766  0.47866744  1  -0.105972
  C  C163  1  0.12568304  0.75208360  0.48976555  1  -0.023451
  C  C164  1  0.14025757  0.70512510  0.48126010  1  -0.214742
  C  C165  1  0.37662053  0.55830450  0.46582880  1  0.081290
  C  C166  1  0.37565690  0.60727010  0.45876133  1  -0.182201
  C  C167  1  0.41269553  0.62832430  0.42922890  1  0.013855
  C  C168  1  0.45088693  0.60083180  0.40611163  1  -0.070205
  C  C169  1  0.45180115  0.55211544  0.41211802  1  0.006161
  C  C170  1  0.41489938  0.53098260  0.44166000  1  -0.084661
  C  C171  1  0.25477225  0.46601614  0.92401300  1  0.262834
  C  C172  1  0.20423643  0.73290010  0.04476821  1  0.261028
  C  C173  1  0.14526281  0.67630670  0.93620040  1  -0.025934
  C  C174  1  0.18415822  0.69554764  0.01357877  1  -0.070785
  C  C175  1  0.32417524  0.51445806  0.96263950  1  -0.019039
  C  C176  1  0.34026128  0.55583620  0.98592013  1  0.016776
  C  C177  1  0.30506772  0.59409714  0.98746526  1  -0.030437
  C  C178  1  0.25443867  0.59176403  0.96468204  1  -0.015643
  C  C179  1  0.24180277  0.55252194  0.93617713  1  0.055040
  C  C180  1  0.21605107  0.62764920  0.96972334  1  -0.007965
  C  C181  1  0.17417617  0.63288330  0.93590100  1  -0.012724
  C  C182  1  0.16266270  0.59392065  0.90509360  1  0.021838
  C  C183  1  0.19642395  0.55426157  0.90622850  1  -0.075003
  C  C184  1  0.21766834  0.65704626  0.00940442  1  -0.007753
  C  C185  1  0.14588040  0.70464414  0.97776520  1  0.056184
  C  C186  1  0.27439162  0.51206625  0.93944420  1  -0.078117
  C  C187  1  0.06207771  0.73566884  0.00585747  1  -0.000223
  C  C188  1  0.11020891  0.58835540  0.87793934  1  -0.061547
  C  C189  1  0.11849785  0.58308166  0.82458466  1  -0.143250
  C  C190  1  0.12427054  0.69838020  0.89075830  1  -0.036377
  C  C191  1  0.15493153  0.74312276  0.87826900  1  -0.151271
  C  C192  1  0.39971438  0.52792954  0.04766345  1  -0.087553
  C  C193  1  0.20520535  0.99514430  0.21865901  1  0.022477
  C  C194  1  0.19776826  0.65571606  0.24250450  1  0.139936
  C  C195  1  0.20398426  0.94261470  0.22231258  1  0.044013
  C  C196  1  0.19886194  0.70822320  0.23879825  1  -0.132540
  C  C197  1  0.20299856  0.89890990  0.22535977  1  0.005711
  C  C198  1  0.19979058  0.75194633  0.23571149  1  -0.109857
  C  C199  1  0.20185302  0.84720230  0.22899397  1  -0.003155
  C  C200  1  0.20090264  0.80364275  0.23205844  1  0.013683
  C  C201  1  0.70878460  0.10795148  0.12402999  1  0.439961
  C  C202  1  0.68117726  0.08809584  0.78767496  1  0.253511
  C  C203  1  0.70451224  0.10487881  0.07197869  1  0.997419
  C  C204  1  0.68544954  0.09116851  0.83972627  1  -0.082077
  C  C205  1  0.70095580  0.10232093  0.02864861  1  -0.344142
  C  C206  1  0.68900590  0.09372630  0.88305634  1  0.071620
  C  C207  1  0.69675910  0.09930259  0.97751755  1  0.138960
  C  C208  1  0.69320273  0.09674473  0.93418740  1  -0.096581
  C  C209  1  0.19957772  0.48576134  0.24667543  1  -0.391988
  C  C210  1  0.20027970  0.44250500  0.24054834  1  0.225659
  C  C211  1  0.20182313  0.34861040  0.22731788  1  0.046493
  C  C212  1  0.20266129  0.29767930  0.22013295  1  -0.015954
  C  C213  1  0.20336309  0.25443440  0.21400751  1  0.009322
  C  C214  1  0.19876535  0.53742530  0.25405890  1  1.160062
  C  C215  1  0.20418228  0.20278229  0.20662355  1  0.075048
  C  C216  1  0.20111084  0.39157358  0.23336555  1  -0.104372
  C  C217  1  0.31381834  0.55917860  0.50383930  1  -0.102807
  C  C218  1  0.22042282  0.65871835  0.46445838  1  -0.419538
  C  C219  1  0.20412368  0.58208877  0.41346163  1  0.312738
  C  C220  1  0.26445362  0.63602850  0.49500564  1  -0.117896
  C  C221  1  0.23369859  0.55902874  0.45483446  1  -0.055574
  C  C222  1  0.28165890  0.63594320  0.39695498  1  -0.582945
  C  C223  1  0.22175024  0.63521796  0.41317734  1  1.632205
  C  C224  1  0.28318548  0.58894664  0.47113457  1  -0.019972
  C  C225  1  0.31577122  0.60246900  0.42739840  1  0.062113
  C  C226  1  0.15527900  0.69762370  0.38934960  1  -1.984150
  C  C227  1  0.18965934  0.65490570  0.33006530  1  -7.410713
  C  C228  1  0.18998371  0.66170750  0.37872037  1  -0.484325
  C  C229  1  0.29848555  0.55478480  0.55041915  1  0.094212
  C  C230  1  0.33477515  0.51577090  0.48931190  1  0.058231
  C  C231  1  0.16577650  0.65664095  0.49077183  1  0.118772
  C  C232  1  0.16017236  0.69650980  0.52746050  1  -0.185161
  C  C233  1  0.14368770  0.56851610  0.41467938  1  0.006247
  C  C234  1  0.11271392  0.57542830  0.36840025  1  -0.166478
  C  C235  1  0.67808140  0.89791330  0.70453120  1  -0.065743
  C  C236  1  0.54364640  0.75052950  0.68965983  1  0.188741
  C  C237  1  0.78325635  0.01062203  0.71610560  1  0.407297
  C  C238  1  0.58333266  0.78876317  0.69388460  1  -0.189132
  C  C239  1  0.74359256  0.97235990  0.71182436  1  -0.184813
  C  C240  1  0.61406330  0.82243190  0.69729080  1  -0.028799
  C  C241  1  0.71289104  0.93866855  0.70844090  1  0.061996
  C  C242  1  0.64889500  0.86316580  0.70122916  1  -0.064445
  C  C243  1  0.69540750  0.09274062  0.28678680  1  0.424140
  C  C244  1  0.69561505  0.10287556  0.62475157  1  0.269035
  C  C245  1  0.69542870  0.09429873  0.33912045  1  -0.139606
  C  C246  1  0.69554080  0.10128604  0.57241774  1  -0.092490
  C  C247  1  0.69543720  0.09559853  0.38263760  1  0.072196
  C  C248  1  0.69549060  0.09997436  0.52890040  1  0.038512
  C  C249  1  0.69544150  0.09712307  0.43400532  1  -0.030504
  C  C250  1  0.69545823  0.09842556  0.47753277  1  -0.011629
  C  C251  1  0.18105760  0.59637350  0.65570740  1  3.445290
  C  C252  1  0.26640737  0.64546060  0.66039675  1  0.233991
  C  C253  1  0.54092640  0.59621966  0.64094730  1  10.629163
  C  C254  1  0.32274795  0.64623153  0.66372085  1  -0.526545
  C  C255  1  0.51309310  0.60587000  0.68282750  1  -7.607476
  C  C256  1  0.35152490  0.60382590  0.66773313  1  0.307517
  C  C257  1  0.45583950  0.60636420  0.68043625  1  2.607440
  C  C258  1  0.40820697  0.60557810  0.67565000  1  -1.436686
  C  C259  1  0.68411607  0.60297877  0.68841850  1  -47.518406
  C  C260  1  0.54069180  0.61311920  0.72573940  1  14.381215
  C  C261  1  0.32550427  0.56030040  0.66293824  1  -1.035596
  C  C262  1  0.59636104  0.61068976  0.72625613  1  -29.340160
  C  C263  1  0.27017390  0.55946030  0.65750710  1  0.261274
  C  C264  1  0.50783324  0.63475627  0.57742560  1  0.886539
  C  C265  1  0.47360155  0.62966170  0.53291655  1  -0.442833
  C  C266  1  0.36853350  0.69791484  0.61916160  1  0.031331
  C  C267  1  0.40426618  0.74114590  0.62115300  1  -0.176367
  C  C268  1  0.62513050  0.60102606  0.68490905  1  91.543365
  C  C269  1  0.23991816  0.60101040  0.65721100  1  -1.325211
  C  C270  1  0.59691180  0.59064210  0.64199805  1  -15.515240
  C  C271  1  0.53011954  0.08317176  0.14080790  1  -0.081917
  C  C272  1  0.51402420  0.11806874  0.17360476  1  -0.023539
  C  C273  1  0.46820542  0.10921038  0.20261836  1  0.013516
  C  C274  1  0.22800443  0.06654740  0.30857092  1  0.239117
  C  C275  1  0.28559610  0.07229858  0.29767442  1  -0.139295
  C  C276  1  0.30829915  0.03804807  0.26746064  1  0.014290
  C  C277  1  0.35496134  0.04690106  0.24286854  1  -0.072107
  C  C278  1  0.38276273  0.08906891  0.25193710  1  0.063988
  C  C279  1  0.36456720  0.12078251  0.28654182  1  -0.112699
  C  C280  1  0.31594697  0.11337701  0.30965600  1  0.093443
  C  C281  1  0.53986520  0.16228296  0.17573233  1  0.030765
  C  C282  1  0.58753340  0.16859888  0.14982330  1  -0.121760
  C  C283  1  0.57464160  0.09112586  0.11205341  1  -0.055708
  C  C284  1  0.42963603  0.10052192  0.22577275  1  -0.027066
  C  C285  1  0.60759890  0.13109630  0.12118324  1  -0.033162
  C  C286  1  0.66543454  0.12915733  0.10780697  1  0.341412
  C  C287  1  0.61522000  0.21480165  0.15080154  1  0.301566
  C  C288  1  0.51493806  0.20279373  0.20390666  1  -0.105221
  C  C289  1  0.53143630  0.20152532  0.25624870  1  -0.020160
  C  C290  1  0.50928414  0.24423088  0.28308570  1  -0.158037
  C  C291  1  0.29830533  0.15030238  0.34568658  1  -0.129491
  C  C292  1  0.29555368  0.12994386  0.39551720  1  -0.006324
  C  C293  1  0.27795467  0.16740228  0.43140040  1  -0.164901
  C  C294  1  0.50047440  0.03800724  0.13687208  1  0.299668
  C  C295  1  0.58619740  0.05790665  0.07213630  1  0.329366
  C  C296  1  0.37004524  0.01352880  0.20463365  1  0.242618
  C  C297  1  0.66387874  0.29742170  0.70428260  1  0.065009
  C  C298  1  0.66482860  0.34015462  0.70159070  1  -0.120545
  C  C299  1  0.66820097  0.49188290  0.69203320  1  0.815276
  C  C300  1  0.66050640  0.14569344  0.71384020  1  -0.694658
  C  C301  1  0.66173536  0.20098577  0.71035725  1  0.207052
  C  C302  1  0.66697200  0.43659058  0.69551610  1  -0.352723
  C  C303  1  0.66268486  0.24370682  0.70766620  1  -0.125378
  C  C304  1  0.66602254  0.39386955  0.69820714  1  0.144508
  C  C305  1  0.92227760  0.15431294  0.29139727  1  0.005043
  C  C306  1  0.84828340  0.94181890  0.17636949  1  -0.056463
  C  C307  1  0.83272860  0.92286020  0.12716470  1  -0.140659
  C  C308  1  0.88426270  0.19574016  0.30082798  1  -0.046804
  C  C309  1  0.90734340  0.23629235  0.33163000  1  -0.145692
  C  C310  1  0.07483983  0.16993648  0.25642880  1  -0.029141
  C  C311  1  0.06781256  0.19416586  0.20894897  1  -0.172652
  C  C312  1  0.96660200  0.92711747  0.16328739  1  -0.030873
  C  C313  1  0.98435163  0.91112260  0.21223105  1  -0.210336
  C  C314  1  0.81296486  0.04107690  0.15659915  1  0.020047
  C  C315  1  0.81599310  0.06007616  0.10642012  1  -0.156304
  C  C316  1  0.84121350  0.13317192  0.21107532  1  0.177575
  C  C317  1  0.05559027  0.06358456  0.20497300  1  0.294649
  C  C318  1  0.95772550  0.14462318  0.32869120  1  0.014660
  C  C319  1  0.01188469  0.14315087  0.31825536  1  0.026561
  C  C320  1  0.02701271  0.14044334  0.27061936  1  0.014407
  C  C321  1  0.98859566  0.12117651  0.23768872  1  -0.018133
  C  C322  1  0.93408330  0.13258189  0.24543327  1  0.022806
  C  C323  1  0.00139439  0.08365194  0.20555738  1  -0.047367
  C  C324  1  0.96022373  0.05690076  0.18324752  1  0.004107
  C  C325  1  0.90613400  0.06847443  0.18912579  1  0.021631
  C  C326  1  0.89461625  0.11264913  0.21277896  1  -0.057832
  C  C327  1  0.97220930  0.01470554  0.15889406  1  0.021603
  C  C328  1  0.94076100  0.97557270  0.16614242  1  -0.014416
  C  C329  1  0.88614030  0.98358180  0.17400564  1  0.001687
  C  C330  1  0.86793400  0.03145970  0.17640018  1  -0.032535
  S  S331  1  0.23033321  0.69986224  0.66025156  1  0.288355
  S  S332  1  0.50663730  0.62559295  0.77902645  1  -3.980478
  S  S333  1  0.36138314  0.50638550  0.66396120  1  0.699134
  S  S334  1  0.62976410  0.56910950  0.59031390  1  4.049899
  I  I335  1  0.92903334  0.13787416  0.39933628  1  -0.114374
  I  I336  1  0.06947041  0.14952649  0.37334055  1  -0.088263
  I  I337  1  0.00068712  0.01944956  0.08983228  1  -0.092768
  N  N338  1  0.11097205  0.74426180  0.98078275  1  -0.165156
  N  N339  1  0.39150074  0.55896807  0.00815940  1  -0.133643
  N  N340  1  0.13039811  0.70849320  0.35000232  1  0.049238
  N  N341  1  0.15278116  0.68369114  0.31238952  1  1.132488
  N  N342  1  0.30661786  0.51075680  0.56234634  1  -0.198384
  N  N343  1  0.32900092  0.48595476  0.52473360  1  -0.145188
  O  O344  1  0.19659014  0.51443020  0.34189993  1  -0.306822
  O  O345  1  0.29431700  0.63898210  0.54601380  1  -0.222524
  O  O346  1  0.20568126  0.65181660  0.55560845  1  -0.243307
  O  O347  1  0.20595433  0.58680320  0.31038004  1  -0.572352
  O  O348  1  0.28888264  0.43581910  0.90692645  1  -0.213662
  O  O349  1  0.20445883  0.45617417  0.93035970  1  -0.222679
  O  O350  1  0.25543820  0.74075830  0.04267609  1  -0.211100
  O  O351  1  0.17101440  0.76111335  0.06610930  1  -0.210852
  O  O352  1  0.15996309  0.01864755  0.21174349  1  -0.661061
  O  O353  1  0.25151044  0.01762629  0.22243370  1  -0.433736
  O  O354  1  0.20223713  0.62911920  0.20372945  1  -0.668017
  O  O355  1  0.19243518  0.63631300  0.28453937  1  0.215470
  O  O356  1  0.75070965  0.12789617  0.14391923  1  -0.364173
  O  O357  1  0.67061394  0.09070709  0.14988375  1  -0.820744
  O  O358  1  0.70061640  0.05125603  0.76516750  1  -0.625657
  O  O359  1  0.65798370  0.12223539  0.76443960  1  -0.094488
  O  O360  1  0.21983802  0.17545496  0.24100173  1  -0.769636
  O  O361  1  0.18923408  0.18464111  0.16572863  1  -0.459622
  O  O362  1  0.21371357  0.55556640  0.29495380  1  -0.414639
  O  O363  1  0.18310961  0.56475246  0.21968068  1  -2.317883
  O  O364  1  0.49261510  0.76355760  0.68563575  1  -0.238367
  O  O365  1  0.83427507  0.99758947  0.72048550  1  -0.213448
  O  O366  1  0.55971664  0.70520616  0.69036970  1  -0.364101
  O  O367  1  0.76717350  0.05594087  0.71575150  1  -0.886236
  O  O368  1  0.73867434  0.10432795  0.26400796  1  -0.742161
  O  O369  1  0.65213160  0.07977764  0.26351032  1  -0.488122
  O  O370  1  0.68137040  0.14168173  0.64713250  1  -0.490367
  O  O371  1  0.70958430  0.06536425  0.64842430  1  -0.336348
  O  O372  1  0.15305603  0.62370074  0.68261110  1  -1.015962
  O  O373  1  0.71219720  0.57342770  0.66404260  1  8.984197
  O  O374  1  0.15839268  0.56386850  0.62944940  1  -1.017913
  O  O375  1  0.54527790  0.64098310  0.81725640  1  0.444606
  O  O376  1  0.46642613  0.66425350  0.77137554  1  0.531151
  O  O377  1  0.47491875  0.57678910  0.79646730  1  0.325049
  O  O378  1  0.38042018  0.49790360  0.71364844  1  -0.271031
  O  O379  1  0.32667333  0.46595716  0.64780897  1  -0.284110
  O  O380  1  0.70686050  0.63325995  0.71720430  1  6.111873
  O  O381  1  0.41480273  0.50932930  0.62861156  1  -0.348271
  O  O382  1  0.65734350  0.52351120  0.60167430  1  -1.751502
  O  O383  1  0.59185570  0.55964744  0.54970090  1  -0.907192
  O  O384  1  0.67525554  0.60859600  0.57336630  1  -1.371266
  O  O385  1  0.19037597  0.69880366  0.62040070  1  -0.228482
  O  O386  1  0.20139496  0.70582180  0.70616305  1  -0.174521
  O  O387  1  0.26983988  0.74708533  0.65378220  1  -0.271901
  O  O388  1  0.51239955  0.59039450  0.59911720  1  -2.658930
  O  O389  1  0.35004184  0.68855310  0.66514146  1  -0.027573
  O  O390  1  0.20156124  0.10062623  0.32665232  1  -0.250966
  O  O391  1  0.20400456  0.02998892  0.29269037  1  -0.350464
  O  O392  1  0.68226760  0.09266595  0.08610517  1  -0.986085
  O  O393  1  0.69879895  0.15974951  0.12417243  1  -0.328245
  O  O394  1  0.62727594  0.23387320  0.18844388  1  -0.271959
  O  O395  1  0.62809914  0.23612380  0.10826532  1  -0.299479
  O  O396  1  0.47922876  0.02623119  0.09938562  1  -0.222627
  O  O397  1  0.49788815  0.00873363  0.17601939  1  -0.326699
  O  O398  1  0.59022343  0.01558607  0.07889331  1  -0.241284
  O  O399  1  0.59334433  0.07563204  0.02683630  1  -0.276631
  O  O400  1  0.37190664  0.97125440  0.21221570  1  -0.204405
  O  O401  1  0.37857944  0.03016538  0.15916777  1  -0.292760
  O  O402  1  0.62398535  0.51878846  0.69900240  1  -2.797773
  O  O403  1  0.70472190  0.11878788  0.70687100  1  -0.310503
  O  O404  1  0.71354210  0.51562110  0.68187380  1  -2.482117
  O  O405  1  0.61516520  0.12195519  0.72399960  1  -0.404456
  O  O406  1  0.06175339  0.01820746  0.20706930  1  -0.189027
  O  O407  1  0.82185394  0.14345278  0.25129074  1  -0.324534
  O  O408  1  0.81438120  0.14002542  0.17147228  1  -0.278266
  O  O409  1  0.09569550  0.09135657  0.20138611  1  -0.327592
