# generated using pymatgen
data_Cu2H19C41N3O10
_symmetry_space_group_name_H-M   'P 1'
_cell_length_a   12.40374000
_cell_length_b   15.85967000
_cell_length_c   13.96716000
_cell_angle_alpha   67.54837000
_cell_angle_beta   68.01729000
_cell_angle_gamma   94.86929000
_symmetry_Int_Tables_number   1
_chemical_formula_structural   Cu2H19C41N3O10
_chemical_formula_sum   'Cu2 H19 C41 N3 O10'
_cell_volume   2269.98899111
_cell_formula_units_Z   1
loop_
 _symmetry_equiv_pos_site_id
 _symmetry_equiv_pos_as_xyz
  1  'x, y, z'
loop_
 _atom_site_type_symbol
 _atom_site_label
 _atom_site_symmetry_multiplicity
 _atom_site_fract_x
 _atom_site_fract_y
 _atom_site_fract_z
 _atom_site_occupancy
  _atom_site_charge
  Cu  Cu0  1  0.14316596  0.21358830  0.08470081  1  0.827870
  Cu  Cu1  1  0.92367070  0.13451262  0.27124900  1  0.842838
  H  H2  1  0.25592104  0.68560010  0.89981440  1  0.044170
  H  H3  1  0.70553267  0.63801646  0.36525290  1  0.052433
  H  H4  1  0.11847393  0.89938796  0.99371570  1  0.038926
  H  H5  1  0.92874790  0.44401650  0.34740830  1  0.059561
  H  H6  1  0.27463448  0.52374417  0.97503500  1  0.042774
  H  H7  1  0.71869980  0.80303013  0.32470750  1  0.075939
  H  H8  1  0.15770905  0.80456430  0.92449105  1  0.048666
  H  H9  1  0.79868200  0.51852804  0.33356503  1  0.044001
  H  H10  1  0.88877800  0.02682817  0.21950194  1  -0.062165
  H  H11  1  0.14572681  0.29071740  0.14402682  1  0.009406
  H  H12  1  0.11181182  0.10923601  0.67704550  1  0.052968
  H  H13  1  0.95716950  0.25161275  0.66834980  1  0.042979
  H  H14  1  0.51910190  0.40634182  0.04699298  1  0.082909
  H  H15  1  0.89373964  0.37131408  0.04359507  1  0.015046
  H  H16  1  0.72738090  0.43462133  0.01491082  1  0.085698
  H  H17  1  0.16028008  0.97272295  0.30329695  1  0.011986
  H  H18  1  0.53299260  0.00338916  0.19859953  1  0.052536
  H  H19  1  0.33193123  0.90210260  0.28838430  1  0.050920
  H  H20  1  0.32542068  0.30121490  0.12567888  1  0.088163
  C  C21  1  0.12093722  0.73489300  0.99654967  1  -0.029695
  C  C22  1  0.84939337  0.59131270  0.27539150  1  -0.024381
  C  C23  1  0.17744088  0.66609790  0.98054090  1  -0.025256
  C  C24  1  0.79356830  0.65987283  0.29292545  1  -0.058516
  C  C25  1  0.99618435  0.29425640  0.34536996  1  0.045571
  C  C26  1  0.05650376  0.04481471  0.01660498  1  0.062213
  C  C27  1  0.05396875  0.39009476  0.24939214  1  0.007877
  C  C28  1  0.98406860  0.94626330  0.09301505  1  -0.018334
  C  C29  1  0.19634543  0.50581044  0.05532547  1  -0.021966
  C  C30  1  0.80506754  0.82388500  0.25064010  1  -0.110972
  C  C31  1  0.15326830  0.41272000  0.14242001  1  0.073536
  C  C32  1  0.87049925  0.91885793  0.18927695  1  0.129482
  C  C33  1  0.99817710  0.46014270  0.26327350  1  -0.050944
  C  C34  1  0.02977885  0.87762390  0.06353753  1  -0.011162
  C  C35  1  0.03112276  0.54968950  0.17207676  1  -0.003994
  C  C36  1  0.96675026  0.78225060  0.12620866  1  -0.024237
  C  C37  1  0.13557786  0.57405820  0.06889242  1  0.037969
  C  C38  1  0.85389495  0.75532055  0.22261090  1  0.054901
  C  C39  1  0.96564140  0.61681235  0.18377173  1  0.000636
  C  C40  1  0.01802016  0.71246890  0.10066470  1  -0.004009
  C  C41  1  0.91263515  0.09636155  0.45459273  1  -0.039933
  C  C42  1  0.96276250  0.11552165  0.52304820  1  0.362317
  C  C43  1  0.14681247  0.25110528  0.90342440  1  0.294699
  C  C44  1  0.09981532  0.23796393  0.82992050  1  -0.080693
  C  C45  1  0.01827347  0.21217011  0.69159800  1  -0.018248
  C  C46  1  0.05118768  0.14898002  0.65319914  1  -0.045175
  C  C47  1  0.00399871  0.13082488  0.58179563  1  -0.016632
  C  C48  1  0.06207783  0.22720326  0.76670320  1  0.056585
  C  C49  1  0.71444310  0.35880873  0.05743836  1  -0.077059
  C  C50  1  0.24922416  0.01696020  0.27132627  1  0.016543
  C  C51  1  0.34529337  0.97717580  0.26326084  1  -0.064713
  C  C52  1  0.45985815  0.03566253  0.21671572  1  -0.056492
  C  C53  1  0.47766020  0.13342969  0.18652220  1  0.007147
  C  C54  1  0.37896252  0.17149799  0.18496773  1  0.063590
  C  C55  1  0.58970180  0.19563146  0.15167782  1  -0.040377
  C  C56  1  0.60449210  0.29516035  0.09794983  1  0.062034
  C  C57  1  0.50850695  0.33069697  0.08762319  1  -0.019116
  C  C58  1  0.39641140  0.26964784  0.13362011  1  -0.086982
  C  C59  1  0.68656070  0.16517039  0.17213600  1  0.074219
  C  C60  1  0.80800253  0.32407334  0.07351051  1  0.051592
  C  C61  1  0.67575910  0.06875882  0.24598466  1  -0.070561
  N  N62  1  0.79156850  0.22996673  0.13019300  1  -0.163546
  N  N63  1  0.26841900  0.11222161  0.22883031  1  -0.153348
  N  N64  1  0.66635114  0.99104930  0.30525780  1  -0.057140
  O  O65  1  0.04610242  0.22616231  0.34512684  1  -0.158129
  O  O66  1  0.00835915  0.11331344  0.01937701  1  -0.249128
  O  O67  1  0.88895124  0.27855837  0.42387527  1  -0.190008
  O  O68  1  0.16551031  0.06091750  0.94062850  1  -0.149437
  O  O69  1  0.82205640  0.98098510  0.22848986  1  -0.168246
  O  O70  1  0.20951158  0.34701318  0.11893658  1  -0.498656
  O  O71  1  0.97870120  0.07996309  0.37153840  1  -0.465898
  O  O72  1  0.80137340  0.09316802  0.47924260  1  -0.246518
  O  O73  1  0.25645630  0.25021297  0.88194466  1  -0.202060
  O  O74  1  0.07912854  0.26341784  0.98964870  1  -0.206976
