data_I
_chemical_name_common  'results/normal_generation/cif/sample_3'
_cell_length_a 12.97462
_cell_length_b 18.68157
_cell_length_c 19.08980
_cell_angle_alpha 86.36974
_cell_angle_beta  81.25774
_cell_angle_gamma 76.04036
_space_group_name_H-M_alt      'P 1'


loop_
_space_group_symop_operation_xyz
  'x, y, z' 

loop_
_atom_site_label
_atom_site_fract_x
_atom_site_fract_y
_atom_site_fract_z
_atom_site_type_symbol
H0    0.50895506 0.7843854 0.9299946     H
H1    0.40559053 0.86885047 0.9265403     H
H2    0.36694655 0.7118995 0.9426604     H
H3    0.2661047 0.7964956 0.93767416     H
H4    0.3536913 0.8237803 0.8161295     H
H5    0.31924343 0.73540616 0.821054     H
H6    0.4566639 0.73946905 0.82106316     H
H7    0.82150203 0.27265602 0.05822658     H
H8    0.81960106 0.20136756 0.1266156     H
H9    0.83814216 0.3583499 0.15163511     H
H10   0.8431584 0.2833034 0.21573527     H
H11   0.008453131 0.21037354 0.14489914     H
H12   0.026421547 0.2990997 0.16580005     H
H13   0.002923727 0.28364944 0.07786346     H
H14   0.7387694 0.78791934 0.17550105     H
H15   0.42192698 0.30525506 0.93232733     H
H16   0.6844927 0.9067298 0.1365951     H
H17   0.464722 0.18781386 0.9771066     H
H18   0.29295045 0.050056558 0.070058666     H
H19   0.316942 0.96793914 0.12481994     H
H20   0.19430596 0.9910965 0.9953027     H
H21   0.21765576 0.90887743 0.050920106     H
H22   0.116384886 0.9816984 0.15612818     H
H23   0.035864394 0.9871191 0.08591447     H
H24   0.0915188 0.06392366 0.09973855     H
H25   0.61712426 0.0880105 0.24638535     H
H26   0.5085469 0.14459382 0.20680967     H
H27   0.6700102 0.20172144 0.28004792     H
H28   0.55475134 0.2579668 0.24480465     H
H29   0.4332641 0.19826524 0.33055758     H
H30   0.51525486 0.24115297 0.37479082     H
H31   0.5486181 0.14219199 0.3668957     H
C32   0.47442025 0.91313654 0.04829209     C
C33   0.6177926 0.18969943 0.10583136     C
C34   0.47811526 0.83637846 0.05061076     C
C35   0.62887585 0.26372772 0.09475365     C
C36   0.6229125 0.81209606 0.11808518     C
C37   0.51497287 0.28389013 0.0054571144     C
C38   0.62572354 0.8877752 0.1125782     C
C39   0.509867 0.20864695 0.011129753     C
C40   0.55168754 0.9389341 0.077277     C
C41   0.5615715 0.16082376 0.061255954     C
C42   0.55435425 0.01742879 0.07176361     C
C43   0.5570375 0.0826298 0.06686446     C
C44   0.42347798 0.8113627 0.94855213     C
C45   0.351624 0.76928115 0.92035854     C
C46   0.37183738 0.76696783 0.839598     C
C47   0.7980077 0.26188537 0.11579323     C
C48   0.8619189 0.29741892 0.15850988     C
C49   0.98240286 0.270857 0.1351659     C
C50   0.30621088 0.9890479 0.06957423     C
C51   0.20636421 0.96975756 0.049871776     C
C52   0.10648207 0.0027823362 0.10126265     C
C53   0.5908073 0.14219801 0.21904765     C
C54   0.58741665 0.20352773 0.2696148     C
C55   0.5166367 0.19554687 0.3397971     C
N56   0.5502515 0.7877431 0.08653335     N
N57   0.5741598 0.30994055 0.047083627     N
O58   0.6873013 0.2919148 0.13633603     O
O59   0.6919428 0.7619556 0.15565747     O
O60   0.46080002 0.33214098 0.95834583     O
O61   0.39516798 0.9623721 0.017366717     O
O62   0.66679025 0.14514112 0.15790105     O
O63   0.40147966 0.8108797 0.023279052     O
Zn64  0.44399214 0.5714615 0.0850819    Zn
Zn65  0.6862583 0.52462494 0.049171817    Zn
H66   0.69863224 0.67133975 0.15111002     H
H67   0.80982494 0.72480214 0.21687232     H
H68   0.78091025 0.5779082 0.06395682     H
H69   0.0023726134 0.6910616 0.191931     H
H70   0.15252975 0.50319016 0.85081184     H
H71   0.032312114 0.52694815 0.9109692     H
H72   0.9949474 0.50792426 0.79183334     H
H73   0.0713833 0.4134888 0.79585075     H
H74   0.95010257 0.44339082 0.8571137     H
H75   0.28659838 0.44739926 0.22482462     H
H76   0.18331735 0.52366936 0.20540991     H
H77   0.2734964 0.55002314 0.30179894     H
H78   0.400288 0.53267515 0.24369916     H
H79   0.292863 0.6101403 0.22536395     H
H80   0.44630808 0.50785625 0.00053708605     H
H81   0.5452736 0.43404508 0.9578629     H
H82   0.64192975 0.40821412 0.057723746     H
H83    0.60825 0.5065983 0.044672497     H
H84   0.5329344 0.46403435 0.11550626     H
H85   0.18565364 0.29779604 0.97349125     H
H86   0.30010024 0.24586804 0.009447739     H
H87   0.38916093 0.21167126 0.88415325     H
H88   0.26591638 0.181845 0.9102279     H
H89   0.26707697 0.26207367 0.8523906     H
C90   0.9996833 0.5072926 0.042381614     C
C91   0.11825539 0.5906795 0.099717006     C
C92   0.832901 0.5981687 0.0926439     C
C93   0.95656276 0.66559327 0.16224234     C
C94   0.7843717 0.65381646 0.14045738     C
C95   0.8463021 0.684954 0.17712347     C
C96   0.006941755 0.6107285 0.11329753     C
C97   0.9455934 0.57138216 0.08218756     C
C98   0.16825184 0.5208178 0.071325526     C
C99   0.11281003 0.49071664 0.028050035     C
C100  0.27335012 0.4817707 0.0820682     C
C101  0.17190032 0.43836373 0.9773568     C
C102  0.32960472 0.42596298 0.035176978     C
C103  0.27541894 0.3987526 0.98833174     C
C104  0.18117028 0.64748687 0.09322426     C
C105  0.94909865 0.44386643 0.041457634     C
C106  0.08610639 0.4814366 0.8799241     C
C107  0.02169915 0.4601646 0.8278308     C
C108  0.2713975 0.50334466 0.20136414     C
C109  0.31204316 0.55220395 0.2458674     C
C110  0.49688855 0.4515549 0.009488664     C
C111  0.574382 0.4577494 0.060209394     C
C112  0.2742478 0.2795298 0.9625069     C
C113  0.3009782 0.23066947 0.8983128     C
O114  0.28053367 0.6235043 0.07356323     O
O115  0.01059527 0.37840396 0.032895207     O
O116  0.13481256 0.71732557 0.091364294     O
O117  0.84947205 0.45402348 0.06545079     O
O118  0.12659495 0.41884014 0.92191386     O
O119  0.3284867 0.50144535 0.13201524     O
O120  0.43850544 0.3975047 0.035096355     O
O121  0.32861006 0.33755413 0.94897634     O
loop_
_geom_bond_atom_site_label_1
_geom_bond_atom_site_label_2
_geom_bond_distance
_geom_bond_site_symmetry_2
_ccdc_geom_bond_type
H0    C44    1.11488       .     S
H1    C44    1.11178       .     S
H2    C45    1.11132       .     S
H3    C45    1.11199       .     S
H4    C46    1.11080       .     S
H5    C46    1.11023       .     S
H6    C46    1.11007       .     S
H7    C47    1.11393       .     S
H8    C47    1.11110       .     S
H9    C48    1.10998       .     S
H10   C48    1.11168       .     S
H11   C49    1.11074   1_455     S
H12   C49    1.11020   1_455     S
H13   C49    1.11070   1_455     S
H14   O59    0.99161       .     S
H15   O60    0.99163       .     S
H16   C38    1.08356       .     S
H17   C39    1.08354   1_556     S
H18   C50    1.11127   1_545     S
H19   C50    1.11920       .     S
H20   C51    1.11150   1_556     D
H21   C51    1.11041       .     S
H22   C52    1.11035   1_565     D
H23   C52    1.11030   1_565     D
H24   C52    1.11073       .     S
H25   C53    1.11095       .     S
H26   C53    1.11675       .     S
H27   C54    1.11165       .     S
H28   C54    1.10919       .     S
H29   C55    1.11094       .     D
H30   C55    1.11065       .     S
H31   C55    1.11072       .     S
C32   C34    1.42125       .     D
C32   C40    1.40675       .     S
C32   O61    1.38251       .     T
C33   C35    1.42396       .     S
C33   C41    1.40849       .     D
C33   O62    1.38459       .     S
C34   C32    1.42125       .     S
C34   N56    1.37028       .     S
C34   O63    1.38040       .     S
C35   C33    1.42396       .     S
C35   N57    1.37063       .     S
C35   O58    1.38220       .     S
C36   C38    1.41990       .     S
C36   N56    1.36850       .     S
C36   O59    1.37821       .     S
C37   C39    1.41967       .     S
C37   N57    1.36850       .     S
C37   O60    1.37811   1_554     S
C38   H16    1.08356       .     S
C38   C36    1.41990       .     S
C38   C40    1.40091       .     S
C39   H17    1.08354   1_554     S
C39   C37    1.41967       .     S
C39   C41    1.40056       .     S
C40   C32    1.40675       .     S
C40   C38    1.40091       .     S
C40   C42    1.47189   1_565     S
C41   C33    1.40849       .     S
C41   C39    1.40056       .     S
C41   C43    1.47260       .     S
C42   C40    1.47189   1_545     S
C42   C43    1.22420       .     S
C43   C41    1.47260       .     S
C43   C42    1.22420       .     S
C44   H0     1.11488       .     S
C44   H1     1.11178       .     S
C44   C45    1.52858       .     S
C44   O63    1.41151   1_556     S
C45   H2     1.11132       .     S
C45   H3     1.11199       .     S
C45   C44    1.52858       .     S
C45   C46    1.52563       .     S
C46   H4     1.11080       .     S
C46   H5     1.11023       .     S
C46   H6     1.11007       .     S
C46   C45    1.52563       .     S
C47   H7     1.11393       .     S
C47   H8     1.11110       .     S
C47   C48    1.52739       .     S
C47   O58    1.41405       .     S
C48   H9     1.10998       .     S
C48   H10    1.11168       .     S
C48   C47    1.52739       .     S
C48   C49    1.52660       .     D
C49   H11    1.11074   1_655     S
C49   H12    1.11020   1_655     D
C49   H13    1.11070   1_655     D
C49   C48    1.52660       .     S
C50   H18    1.11127   1_565     S
C50   H19    1.11920       .     S
C50   C51    1.52974       .     S
C50   O61    1.41756       .     S
C51   H20    1.11150   1_554     D
C51   H21    1.11041       .     S
C51   C50    1.52974       .     S
C51   C52    1.52543   1_565     D
C52   H22    1.11035   1_545     S
C52   H23    1.11030   1_545     T
C52   H24    1.11073       .     S
C52   C51    1.52543   1_545     D
C53   H25    1.11095       .     S
C53   H26    1.11675       .     S
C53   C54    1.53275       .     S
C53   O62    1.41622       .     S
C54   H27    1.11165       .     S
C54   H28    1.10919       .     S
C54   C53    1.53275       .     S
C54   C55    1.52555       .     S
C55   H29    1.11094       .     S
C55   H30    1.11065       .     S
C55   H31    1.11072       .     S
C55   C54    1.52555       .     S
N56   C34    1.37028       .     S
N56   C36    1.36850       .     S
N56   Zn64   4.57607       .     S
N57   C35    1.37063       .     S
N57   C37    1.36850       .     S
N57   Zn65   4.58852       .     S
O58   C35    1.38220       .     S
O58   C47    1.41405       .     S
O59   H14    0.99161       .     S
O59   C36    1.37821       .     S
O60   H15    0.99163       .     S
O60   C37    1.37811   1_556     S
O61   C32    1.38251       .     S
O61   C50    1.41756       .     S
O62   C33    1.38459       .     S
O62   C53    1.41622       .     S
O63   C34    1.38040       .     S
O63   C44    1.41151   1_554     S
Zn64  N56    4.57607       .     S
Zn64  Zn65   3.03478       .     S
Zn64  O114   2.14739       .     S
Zn64  O116   4.26063       .     S
Zn65  N57    4.58852       .     S
Zn65  Zn64   3.03478       .     S
Zn65  O115   4.40804   1_655     S
Zn65  O117   2.26299       .     S
H66   C94    1.07238       .     S
H67   C95    1.07066       .     S
H68   C92    1.07699       .     S
H69   C93    1.08344   1_455     D
H70   C106   1.10069       .     S
H71   C106   1.10137       .     S
H72   C107   1.11095   1_655     S
H73   C107   1.10688       .     S
H74   C107   1.11086   1_655     A
H75   C108   1.09541       .     A
H76   C108   1.10620       .     S
H77   C109   1.11077       .     S
H78   C109   1.10981       .     S
H79   C109   1.11023       .     S
H80   C110   1.11555       .     S
H81   C110   1.10727   1_556     S
H82   C111   1.10830       .     A
H83   C111   1.11060       .     A
H84   C111   1.10903       .     A
H85   C112   1.10826       .     S
H86   C112   1.10869   1_554     S
H87   C113   1.10919       .     S
H88   C113   1.11046       .     S
H89   C113   1.11074       .     A
C90   C97    1.43219       .     S
C90   C99    1.41226   1_655     S
C90   C105   1.48877       .     A
C91   C96    1.38955       .     A
C91   C98    1.41143       .     A
C91   C104   1.47598       .     A
C92   H68    1.07699       .     S
C92   C94    1.39282       .     A
C92   C97    1.41387       .     A
C93   H69    1.08344   1_655     A
C93   C95    1.37766       .     A
C93   C96    1.40114   1_655     S
C94   H66    1.07238       .     D
C94   C92    1.39282       .     S
C94   C95    1.38636       .     S
C95   H67    1.07066       .     A
C95   C93    1.37766       .     S
C95   C94    1.38636       .     A
C96   C91    1.38955       .     S
C96   C93    1.40114   1_455     S
C96   C97    1.41698   1_455     S
C97   C90    1.43219       .     S
C97   C92    1.41387       .     S
C97   C96    1.41698   1_655     S
C98   C91    1.41143       .     S
C98   C99    1.39670       .     S
C98   C100   1.42118       .     S
C99   C90    1.41226   1_455     S
C99   C98    1.39670       .     S
C99   C101   1.41894   1_554     S
C100  C98    1.42118       .     S
C100  C102   1.40478       .     S
C100  O119   1.39089       .     S
C101  C99    1.41894   1_556     S
C101  C103   1.40777       .     S
C101  O118   1.39291       .     S
C102  C100   1.40478       .     S
C102  C103   1.40481   1_554     D
C102  O120   1.38422       .     S
C103  C101   1.40777       .     S
C103  C102   1.40481   1_556     S
C103  O121   1.38502       .     S
C104  C91    1.47598       .     A
C104  O114   1.26458       .     A
C104  O116   1.29895       .     S
C105  C90    1.48877       .     S
C105  O115   1.29376   1_655     S
C105  O117   1.27646       .     S
C106  H70    1.10069       .     S
C106  H71    1.10137       .     S
C106  C107   1.51923       .     A
C106  O118   1.41382       .     A
C107  H72    1.11095   1_455     A
C107  H73    1.10688       .     S
C107  H74    1.11086   1_455     S
C107  C106   1.51923       .     S
C108  H75    1.09541       .     S
C108  H76    1.10620       .     A
C108  C109   1.51646       .     S
C108  O119   1.41340       .     S
C109  H77    1.11077       .     A
C109  H78    1.10981       .     A
C109  H79    1.11023       .     A
C109  C108   1.51646       .     A
C110  H80    1.11555       .     S
C110  H81    1.10727   1_554     A
C110  C111   1.52580       .     A
C110  O120   1.42349       .     A
C111  H82    1.10830       .     A
C111  H83    1.11060       .     S
C111  H84    1.10903       .     D
C111  C110   1.52580       .     S
C112  H85    1.10826       .     S
C112  H86    1.10869   1_556     A
C112  C113   1.52148       .     S
C112  O121   1.42031       .     A
C113  H87    1.10919       .     S
C113  H88    1.11046       .     S
C113  H89    1.11074       .     S
C113  C112   1.52148       .     S
O114  Zn64   2.14739       .     S
O114  C104   1.26458       .     S
O115  Zn65   4.40804   1_455     S
O115  C105   1.29376   1_455     S
O116  Zn64   4.26063       .     S
O116  C104   1.29895       .     S
O117  Zn65   2.26299       .     S
O117  C105   1.27646       .     S
O118  C101   1.39291       .     S
O118  C106   1.41382       .     S
O119  C100   1.39089       .     S
O119  C108   1.41340       .     S
O120  C102   1.38422       .     S
O120  C110   1.42349       .     S
O121  C103   1.38502       .     S
O121  C112   1.42031       .     S
