data_I
_chemical_name_common  'results/normal_generation/cif/sample_9'
_cell_length_a 24.13633
_cell_length_b 25.94695
_cell_length_c 29.76851
_cell_angle_alpha 88.94949
_cell_angle_beta  87.85483
_cell_angle_gamma 96.25865
_space_group_name_H-M_alt      'P 1'


loop_
_space_group_symop_operation_xyz
  'x, y, z' 

loop_
_atom_site_label
_atom_site_fract_x
_atom_site_fract_y
_atom_site_fract_z
_atom_site_type_symbol
C0    0.033173494 0.18775949 0.3819529     C
C1    0.081207134 0.22861162 0.38891235     C
C2    0.121171035 0.26268953 0.39469928     C
C3    0.16865204 0.3036659 0.4016356     C
C4    0.20842347 0.33827215 0.40747014     C
C5    0.25581828 0.37940544 0.41440192     C
C6    0.29553118 0.4137764 0.42026472     C
C7    0.34274468 0.45543382 0.42738914     C
O8    0.005250392 0.16402651 0.4149096     O
O9    0.3339438 0.5030588 0.43069038     O
O10   0.39308998 0.44501707 0.43070224     O
O11   0.018187737 0.17437534 0.34273624     O
Zn12  0.3907654 0.52660555 0.44855958    Zn
Zn13  0.49533942 0.60925376 0.4379264    Zn
Zn14  0.46723497 0.53106445 0.3600134    Zn
Zn15  0.39136353 0.61944705 0.37860706    Zn
O16   0.43617582 0.5715927 0.40627658     O
Zn17  0.88755697 0.020887885 0.37497222    Zn
Zn18  0.99951774 0.096604705 0.36428943    Zn
Zn19  0.8978494 0.12852108 0.4223751    Zn
O20   0.9376557 0.07117245 0.40468916     O
Zn21  0.96569794 0.038671445 0.45712173    Zn
H22    0.69072 0.23121797 0.3862654     H
H23   0.68029785 0.4186293 0.45867822     H
C24   0.5067524 0.45545286 0.41747236     C
C25   0.86903095 0.18552648 0.3919502     C
C26   0.5477693 0.41964915 0.4247444     C
C27   0.8299355 0.22394125 0.3893272     C
C28   0.60075235 0.4387205 0.43958777     C
C29   0.77296466 0.20756884 0.38416842     C
C30   0.6388487 0.40407372 0.44866732     C
C31   0.7347778 0.24337292 0.38963053     C
C32   0.6254198 0.3511085 0.4425904     C
C33   0.75254625 0.29487035 0.39915586     C
C34   0.57199234 0.33121848 0.42965922     C
C35   0.80950433 0.31254584 0.40122166     C
C36   0.5326504 0.36577788 0.42075494     C
C37   0.84857947 0.27662194 0.3963496     C
C38   0.6712676 0.31934565 0.43955424     C
C39   0.71013725 0.32957688 0.4063486     C
N40   0.61624026 0.4929096 0.44636542     N
N41   0.75342417 0.1550745 0.37313932     N
N42   0.90637475 0.29266214 0.40301675     N
N43   0.47799408 0.34624726 0.4069091     N
N44   0.5595973 0.27692887 0.421279     N
N45   0.8276101 0.3660297 0.4098719     N
O46   0.46027252 0.4475905 0.44005913     O
O47   0.91527337 0.19312946 0.36899638     O
O48   0.51894355 0.49582264 0.39175546     O
O49   0.8566024 0.14489733 0.41730002     O
O50   0.6658312 0.51402384 0.4335666     O
O51   0.585481 0.5184257 0.47274315     O
O52   0.704106 0.13456973 0.38731024     O
O53   0.78146213 0.13009755 0.34419626     O
O54   0.9225056 0.3067245 0.4425974     O
O55   0.941425 0.29957265 0.36861074     O
O56   0.45739007 0.36561507 0.37137097     O
O57   0.44929492 0.3079778 0.42907384     O
O58   0.54095256 0.26176172 0.38269934     O
O59   0.5656063 0.24252962 0.4525476     O
O60   0.8032032 0.3902231 0.44158772     O
O61   0.8698363 0.39033782 0.3869796     O
F62   0.7094046 0.370916 0.37754837     F
F63   0.67251724 0.27843732 0.46867624     F
H64   0.8409923 0.11168618 0.6691381     H
H65   0.034046054 0.03247895 0.1407268     H
H66   0.87463486 0.091920614 0.1487875     H
H67   0.0009899139 0.053350568 0.6609754     H
H68   0.82916874 0.9749693 0.8770878     H
H69   0.046293974 0.16965279 0.93272865     H
H70   0.8244463 0.9803667 0.79836565     H
H71   0.051007986 0.16426434 0.011452198     H
H72   0.8447865 0.9665059 0.023451805     H
H73   0.030569673 0.17821033 0.78637314     H
H74   0.83681357 0.969428 0.9449479     H
H75   0.03857553 0.17526118 0.86488104     H
C76   0.929456 0.07789753 0.8105464     C
C77   0.9459488 0.066778444 0.9992705     C
C78   0.8904283 0.043445814 0.7889299     C
C79   0.9849926 0.10121673 0.020884514     C
C80   0.85507447 0.0069972044 0.8142516     C
C81   0.020368934 0.13764425 0.9955682     C
C82   0.9645904 0.11491753 0.78462857     C
C83   0.91078526 0.029779334 0.025192976     C
C84   0.91757494 0.08239825 0.5764743     C
C85   0.9576683 0.062244296 0.23334956     C
C86   0.90201795 0.03451841 0.9307742     C
C87   0.9733982 0.11014691 0.8790502     C
C88   0.9777745 0.10713948 0.9263618     C
C89   0.89765227 0.037515625 0.88345134     C
C90   0.94192547 0.06946364 0.9519082     C
C91   0.9334903 0.0752019 0.8579069     C
C92   0.86779964 0.99754244 0.95796853     C
C93   0.007596731 0.14714248  0.85185     C
C94   0.87218976 0.9953438 0.0041844845     C
C95   0.003185153 0.1493575 0.8056374     C
C96   0.9157347 0.08238389 0.5273277     C
C97   0.9594685 0.06221249 0.28250718     C
C98   0.8583915 0.004083167 0.8605365     C
C99   0.017052531 0.14055386 0.94928294     C
C100  0.8879645 0.046027485 0.7421146     C
C101  0.98744404 0.0986423 0.06771088     C
C102  0.960471 0.116421826 0.7379171     C
C103  0.91487485 0.028300399 0.07190943     C
C104  0.9654318 0.06613843 0.64453524     C
C105  0.9100476 0.07888611 0.16524792     C
C106  0.96389693 0.0660149 0.5979818     C
C107  0.91153526 0.07897565 0.21180451     C
C108  0.87314063 0.09898279 0.6026006     C
C109  0.001961708 0.04536978 0.20724964     C
C110  0.8752109 0.099030234 0.6491538     C
C111  0.9999411 0.04537121 0.16069376     C
C112  0.92121816 0.08259142 0.67004675     C
C113  0.9541214 0.062138464 0.13977158     C
N114  0.9229209 0.08196938 0.7178008     N
N115  0.9524431 0.06274238 0.092022896     N
O116  0.95003974 0.056858312 0.504488     O
O117  0.9251551 0.08773065 0.30534768     O
O118  0.8800483 0.108232185 0.5077498     O
O119  0.9951466 0.03635678 0.30208576     O
O120  0.8514968 0.012535192 0.72090286     O
O121  0.023942709 0.13210034 0.088917136     O
O122  0.88167197 0.9928069 0.097138405     O
O123  0.9936287 0.15196596 0.7126963     O
F124  0.82733285 0.11442076 0.58346087     F
F125  0.04758525 0.029576872 0.22640717     F
F126  0.86751604 0.09477738 0.23549128     F
F127  0.008054733 0.050516706 0.57426035     F
H128  0.09458901 0.99695766 0.3698124     H
H129  0.28530365 0.65019494 0.44718668     H
H130  0.25827894 0.8529509 0.44608763     H
H131  0.16050573 0.7446672 0.3602866     H
H132  0.18147226 0.72203296 0.4453842     H
H133  0.19746712 0.9243065 0.37193054     H
C134  0.9672415 0.9207493 0.43064573     C
C135  0.40885982 0.72359836 0.37987775     C
C136  0.3526836 0.7421094 0.38503498     C
C137  0.023574809 0.9022011 0.4263838     C
C138  0.3428203 0.78931284 0.36429772     C
C139  0.0322906 0.85392886 0.44581327     C
C140  0.29086038 0.8076061 0.36877856     C
C141  0.08440547 0.83583534 0.44269446     C
C142  0.24729115 0.779674 0.39426184     C
C143  0.12949084 0.8650031 0.4199591     C
C144  0.2558606 0.73179835 0.4153144     C
C145  0.12207677 0.91381824 0.40008646     C
C146  0.3088383 0.7130501 0.4105631     C
C147  0.06886584 0.9323939 0.40342796     C
C148  0.19215897 0.8005514 0.3970642     C
C149  0.18464488 0.8448033 0.41939777     C
O150  0.9245253 0.8850522 0.4390981     O
O151  0.4515011 0.75930196 0.3712462     O
O152  0.964594 0.9711908 0.42660367     O
O153  0.41143245 0.6731633 0.38374066     O
O154  0.059541076 0.9792185 0.3836219     O
O155  0.31949034 0.66725934 0.43151456     O
O156  0.226296 0.87319434 0.44225505     O
O157  0.14756684 0.7750914 0.3755707     O
O158  0.21430193 0.70273435 0.44106424     O
O159  0.16506577 0.94403136 0.3768491     O
F160  0.38318133 0.8175871 0.33848363     F
F161  0.9906679 0.8243853 0.4692867     F
F162  0.091312215 0.7897912 0.46305212     F
F163  0.2827423 0.8528893 0.34768382     F
C164  0.54011947 0.68251544 0.44454834     C
C165  0.5851971 0.7258834 0.43244258     C
C166  0.62279594 0.7619683 0.4223822     C
C167  0.6679994 0.8048415 0.41041607     C
C168  0.7061698 0.84075576 0.40039548     C
C169  0.75153947 0.8835555 0.38846496     C
C170  0.7894636 0.9194054 0.37840608     C
C171  0.83542687 0.96201736 0.36637136     C
O172  0.5206804 0.65040946 0.4154932     O
O173  0.8868017 0.9545926 0.36930397     O
O174  0.82514894 0.0068871975 0.35256413     O
O175  0.51861715 0.67587304 0.48440096     O
C176  0.48296633 0.607393 0.1633358     C
C177  0.38382512 0.579327 0.16670012     C
C178  0.40509123 0.57796526 0.6451629     C
C179  0.48142782 0.52483505 0.6484702     C
C180  0.48230645 0.6112781 0.20992517     C
C181  0.382704 0.58299893 0.21331191     C
C182  0.4058353 0.5743474 0.5985514     C
C183  0.48246947 0.5209123 0.60187936     C
C184  0.432051 0.5990703 0.23547447     C
C185  0.44460106 0.5456945 0.5763598     C
C186  0.43383735 0.59147286 0.14165652     C
C187  0.44281483 0.5532919 0.6701778     C
C188  0.43111306 0.6030596 0.28473532     C
C189  0.44553906 0.54170525 0.527099     C
C190  0.4498184 0.6217501 0.9257691     C
C191  0.42592984 0.52685875 0.933534     C
C192  0.42419416 0.52339315 0.8860659     C
C193  0.45336178 0.61752766 0.8782994     C
C194  0.43742722 0.5762054 0.95312476     C
C195  0.43922493 0.5685595 0.8587095     C
C196  0.45780978 0.67018145 0.9470409     C
C197  0.41697437 0.48247483 0.9623266     C
C198  0.40743133 0.47620168 0.8647886     C
C199  0.47107825 0.66066337 0.8494945     C
C200  0.45602235 0.67352265 0.9935362     C
C201  0.41701472 0.4866708 0.008733153     C
C202  0.40770632 0.47309494 0.81830174     C
C203  0.47257185 0.65624815 0.8030967     C
C204  0.4459767 0.6288158 0.020667076     C
C205  0.4261605 0.5351513 0.028288007     C
C206  0.4244453 0.5168414 0.79115963     C
C207  0.45671582 0.6087289 0.7835345     C
C208  0.43653065 0.5800535 0.00065898895     C
C209  0.44012144 0.5647113 0.81117517     C
C210  0.4446777 0.63177675 0.06765616     C
C211  0.42567268 0.53978956 0.07513535     C
C212  0.4254208 0.51393616 0.7441793     C
C213  0.45753315 0.60402733 0.73669773     C
F214  0.53101903 0.62604797 0.22985017     F
F215  0.33317816 0.5717055 0.23643255     F
F216  0.36795723 0.59811217  0.57546     F
F217  0.52117336 0.49365228 0.5819263     F
H218  0.46447745 0.7066692 0.928796     H
H219  0.41091326 0.4435305 0.95018166     H
H220  0.39265856 0.44088504 0.8830445     H
H221  0.48527208 0.69844234 0.8616464     H
H222  0.46255356 0.71154433 0.00813365     H
H223  0.40982077 0.45148468 0.029266834     H
H224  0.3946059 0.43599817 0.8037074     H
H225  0.48634115 0.69050014 0.7825606     H
H226  0.5217803 0.6165213 0.14394712     H
H227  0.34569433 0.5672755 0.14987516     H
H228  0.374968 0.5997595 0.6620107     H
H229  0.51086795 0.505964 0.66783625     H
N230  0.4347578 0.58759356 0.093767524     N
N231  0.44189432 0.55717134 0.7180667     N
O232  0.47118834 0.6305136 0.30362797     O
O233  0.3902231 0.5790702 0.3086263     O
O234  0.42253146 0.5748553 0.50322604     O
O235  0.4693614 0.5050906 0.5081882     O
O236  0.45287147 0.6783985 0.087171435     O
O237  0.41659766 0.49691656 0.101913095     O
O238  0.40966374 0.4683818 0.72466743     O
O239  0.4741715 0.6458328 0.70991653     O
loop_
_geom_bond_atom_site_label_1
_geom_bond_atom_site_label_2
_geom_bond_distance
_geom_bond_site_symmetry_2
_ccdc_geom_bond_type
C0    C1     1.50622       .     D
C0    O8     1.27820       .     D
C0    O11    1.27804       .     S
C1    C0     1.50622       .     S
C1    C2     1.25459       .     T
C2    C1     1.25459       .     S
C2    C3     1.49884       .     T
C3    C2     1.49884       .     S
C3    C4     1.26023       .     T
C4    C3     1.26023       .     S
C4    C5     1.49994       .     S
C5    C4     1.49994       .     D
C5    C6     1.25556       .     D
C6    C5     1.25556       .     S
C6    C7     1.50659       .     S
C7    C6     1.50659       .     T
C7    O9     1.28137       .     S
C7    O10    1.28022       .     T
O8    C0     1.27820       .     S
O8    Zn19   2.65455   1_455     T
O9    C7     1.28137       .     S
O9    Zn12   1.55595       .     S
O10   C7     1.28022       .     S
O10   Zn14   3.36008       .     S
O11   C0     1.27804       .     S
O11   Zn18   2.10221   1_455     S
Zn12  O9     1.55595       .     S
Zn12  O16    1.92667       .     S
Zn12  O153   4.20453       .     S
Zn12  O233   4.35954       .     S
Zn13  O16    1.92665       .     S
Zn13  O151   4.58142       .     S
Zn13  O175   2.26975       .     S
Zn13  O232   4.09765       .     S
Zn14  O10    3.36008       .     S
Zn14  O16    1.92669       .     S
Zn14  O172   3.66836       .     S
Zn14  O235   4.45295       .     S
Zn15  O16    1.92668       .     D
Zn15  O46    5.24810       .     S
Zn15  O48    4.70344       .     S
Zn15  O234   3.98848       .     D
O16   Zn12   1.92667       .     D
O16   Zn13   1.92665       .     D
O16   Zn14   1.92669       .     S
O16   Zn15   1.92668       .     A
Zn17  O20    1.93015       .     A
Zn17  O150   4.17480   1_545     D
Zn17  O173   1.72968   1_545     S
Zn17  O174   1.67651       .     A
Zn18  O11    2.10221   1_655     A
Zn18  O20    1.93206       .     S
Zn18  O47    3.39539       .     A
Zn18  O152   3.71542   1_545     A
Zn19  O8     2.65455   1_655     S
Zn19  O20    1.92797       .     S
Zn19  O117   3.71569       .     D
Zn19  O118   2.59629       .     D
O20   Zn17   1.93015       .     S
O20   Zn18   1.93206       .     D
O20   Zn19   1.92797       .     S
O20   Zn21   1.93927       .     S
Zn21  O20    1.93927       .     D
Zn21  O49    4.19904       .     S
Zn21  O116   1.54177       .     A
Zn21  O119   4.64572       .     A
H22   C31    1.08458       .     D
H23   C30    1.08461       .     S
C24   C26    1.44886       .     A
C24   O46    1.28096       .     A
C24   O48    1.28701       .     S
C25   C27    1.44836       .     A
C25   O47    1.28121       .     D
C25   O49    1.28675       .     A
C26   C24    1.44886       .     S
C26   C28    1.40990       .     D
C26   C36    1.41394       .     S
C27   C25    1.44836       .     D
C27   C29    1.40915       .     D
C27   C37    1.41352       .     D
C28   C26    1.40990       .     S
C28   C30    1.38443       .     D
C28   N40    1.43487       .     S
C29   C27    1.40915       .     S
C29   C31    1.38565       .     D
C29   N41    1.43993       .     D
C30   H23    1.08461       .     D
C30   C28    1.38443       .     S
C30   C32    1.39385       .     A
C31   H22    1.08458       .     A
C31   C29    1.38565       .     D
C31   C33    1.39564       .     S
C32   C30    1.39385       .     A
C32   C34    1.40598       .     A
C32   C38    1.45122       .     S
C33   C31    1.39564       .     A
C33   C35    1.40498       .     A
C33   C39    1.44782       .     S
C34   C32    1.40598       .     S
C34   C36    1.40421       .     D
C34   N44    1.43618       .     D
C35   C33    1.40498       .     S
C35   C37    1.40206       .     D
C35   N45    1.43959       .     S
C36   C26    1.41394       .     S
C36   C34    1.40421       .     D
C36   N43    1.43861       .     S
C37   C27    1.41352       .     A
C37   C35    1.40206       .     A
C37   N42    1.43377       .     D
C38   C32    1.45122       .     S
C38   C39    1.33955       .     A
C38   F63    1.36174       .     A
C39   C33    1.44782       .     S
C39   C38    1.33955       .     A
C39   F62    1.36287       .     D
N40   C28    1.43487       .     A
N40   O50    1.30123       .     S
N40   O51    1.29949       .     D
N41   C29    1.43993       .     S
N41   O52    1.30156       .     D
N41   O53    1.30106       .     D
N42   C37    1.43377       .     D
N42   O54    1.30082       .     S
N42   O55    1.30084       .     D
N43   C36    1.43861       .     S
N43   O56    1.30132       .     S
N43   O57    1.30114       .     A
N44   C34    1.43618       .     A
N44   O58    1.30115       .     S
N44   O59    1.30076       .     S
N45   C35    1.43959       .     A
N45   O60    1.30123       .     A
N45   O61    1.30117       .     S
O46   Zn15   5.24810       .     A
O46   C24    1.28096       .     S
O47   Zn18   3.39539       .     A
O47   C25    1.28121       .     S
O48   Zn15   4.70344       .     D
O48   C24    1.28701       .     D
O49   Zn21   4.19904       .     S
O49   C25    1.28675       .     S
O50   N40    1.30123       .     S
O51   N40    1.29949       .     S
O52   N41    1.30156       .     A
O53   N41    1.30106       .     A
O54   N42    1.30082       .     A
O55   N42    1.30084       .     A
O56   N43    1.30132       .     S
O57   N43    1.30114       .     S
O58   N44    1.30115       .     A
O59   N44    1.30076       .     A
O60   N45    1.30123       .     A
O61   N45    1.30117       .     S
F62   C39    1.36287       .     A
F63   C38    1.36174       .     S
H64   C110   1.08323       .     A
H65   C111   1.08328   1_455     A
H66   C105   1.08322       .     A
H67   C104   1.08340   1_455     A
H68   C98    1.07474   1_565     A
H69   C99    1.07479       .     A
H70   C80    1.08368   1_565     A
H71   C81    1.08366   1_554     A
H72   C94    1.08364       .     A
H73   C95    1.08360       .     S
H74   C92    1.07464       .     S
H75   C93    1.07471       .     A
C76   C78    1.40832       .     A
C76   C82    1.40830       .     A
C76   C91    1.41782       .     A
C77   C79    1.40833   1_556     A
C77   C83    1.40840   1_556     S
C77   C90    1.41783       .     A
C78   C76    1.40832       .     S
C78   C80    1.39302       .     A
C78   C100   1.39780       .     S
C79   C77    1.40833   1_554     S
C79   C81    1.39289   1_654     S
C79   C101   1.39810       .     D
C80   H70    1.08368   1_545     S
C80   C78    1.39302       .     D
C80   C98    1.38431       .     S
C81   H71    1.08366   1_556     A
C81   C79    1.39289   1_456     A
C81   C99    1.38431       .     S
C82   C76    1.40830       .     S
C82   C95    1.39285   1_655     A
C82   C102   1.39792       .     A
C83   C77    1.40840   1_554     S
C83   C94    1.39279   1_545     A
C83   C103   1.39798       .     S
C84   C96    1.46536       .     A
C84   C106   1.40992       .     S
C84   C108   1.41093       .     D
C85   C97    1.46561       .     S
C85   C107   1.41007       .     D
C85   C109   1.41090   1_655     S
C86   C89    1.41794       .     S
C86   C90    1.42183       .     A
C86   C92    1.41656   1_545     A
C87   C88    1.41765       .     S
C87   C91    1.42196       .     S
C87   C93    1.41673   1_655     A
C88   C87    1.41765       .     A
C88   C90    1.42187       .     S
C88   C99    1.41666   1_655     A
C89   C86    1.41794       .     S
C89   C91    1.42187       .     A
C89   C98    1.41656       .     S
C90   C77    1.41783       .     D
C90   C86    1.42183       .     D
C90   C88    1.42187       .     S
C91   C76    1.41782       .     S
C91   C87    1.42196       .     S
C91   C89    1.42187       .     S
C92   H74    1.07464       .     A
C92   C86    1.41656   1_565     A
C92   C94    1.38442   1_556     A
C93   H75    1.07471       .     A
C93   C87    1.41673   1_455     S
C93   C95    1.38439       .     S
C94   H72    1.08364       .     A
C94   C83    1.39279   1_565     A
C94   C92    1.38442   1_554     A
C95   H73    1.08360       .     S
C95   C82    1.39285   1_455     A
C95   C93    1.38439       .     S
C96   C84    1.46536       .     A
C96   O116   1.29632       .     A
C96   O118   1.29638       .     A
C97   C85    1.46561       .     A
C97   O117   1.29635       .     A
C97   O119   1.29635       .     A
C98   H68    1.07474   1_545     A
C98   C80    1.38431       .     A
C98   C89    1.41656       .     A
C99   H69    1.07479       .     S
C99   C81    1.38431       .     S
C99   C88    1.41666   1_455     A
C100  C78    1.39780       .     A
C100  N114   1.36507       .     A
C100  O120   1.35041       .     A
C101  C79    1.39810       .     A
C101  N115   1.36494       .     S
C101  O121   1.35027   1_655     A
C102  C82    1.39792       .     S
C102  N114   1.36483       .     A
C102  O123   1.35035       .     S
C103  C83    1.39798       .     S
C103  N115   1.36489       .     S
C103  O122   1.35022   1_545     D
C104  H67    1.08341   1_655     S
C104  C106   1.38776       .     D
C104  C112   1.39584       .     S
C105  H66    1.08322       .     A
C105  C107   1.38777       .     A
C105  C113   1.39574       .     S
C106  C84    1.40992       .     S
C106  C104   1.38776       .     A
C106  F127   1.35787   1_655     A
C107  C85    1.41007       .     S
C107  C105   1.38777       .     A
C107  F126   1.35780       .     S
C108  C84    1.41093       .     A
C108  C110   1.38861       .     S
C108  F124   1.35752       .     D
C109  C85    1.41090   1_455     S
C109  C111   1.38858   1_455     D
C109  F125   1.35742       .     S
C110  H64    1.08323       .     S
C110  C108   1.38861       .     S
C110  C112   1.39538       .     A
C111  H65    1.08328   1_655     A
C111  C109   1.38858   1_655     A
C111  C113   1.39527       .     S
C112  C104   1.39584       .     S
C112  C110   1.39538       .     A
C112  N114   1.42354       .     S
C113  C105   1.39574       .     A
C113  C111   1.39527       .     A
C113  N115   1.42335       .     S
N114  C100   1.36507       .     S
N114  C102   1.36483       .     S
N114  C112   1.42354       .     S
N115  C101   1.36494       .     S
N115  C103   1.36489       .     D
N115  C113   1.42335       .     S
O116  Zn21   1.54177       .     S
O116  C96    1.29632       .     S
O117  Zn19   3.71569       .     S
O117  C97    1.29635       .     S
O118  Zn19   2.59629       .     A
O118  C96    1.29638       .     A
O119  Zn21   4.64572       .     A
O119  C97    1.29635       .     S
O120  C100   1.35041       .     A
O121  C101   1.35026   1_455     S
O122  C103   1.35022   1_565     S
O123  C102   1.35035       .     A
F124  C108   1.35752       .     A
F125  C109   1.35742       .     S
F126  C107   1.35780       .     S
F127  C106   1.35787   1_455     D
H128  O154   0.98923       .     S
H129  O155   0.98919       .     D
H130  O156   0.98875       .     S
H131  O157   0.99197       .     S
H132  O158   0.98813       .     S
H133  O159   0.98814       .     A
C134  C137   1.49280   1_655     A
C134  O150   1.32213       .     A
C134  O152   1.32082       .     S
C135  C136   1.49057       .     S
C135  O151   1.32177       .     A
C135  O153   1.31998       .     S
C136  C135   1.49057       .     A
C136  C138   1.40880       .     A
C136  C146   1.41801       .     S
C137  C134   1.49280   1_455     S
C137  C139   1.40981       .     S
C137  C147   1.41896       .     S
C138  C136   1.40880       .     S
C138  C140   1.39122       .     D
C138  F160   1.35838       .     S
C139  C137   1.40981       .     S
C139  C141   1.39027       .     S
C139  F161   1.35833   1_455     S
C140  C138   1.39122       .     S
C140  C142   1.40020       .     A
C140  F163   1.35853       .     A
C141  C139   1.39027       .     A
C141  C143   1.40054       .     S
C141  F162   1.35897       .     A
C142  C140   1.40020       .     S
C142  C144   1.41980       .     S
C142  C148   1.49052       .     A
C143  C141   1.40054       .     A
C143  C145   1.41991       .     S
C143  C149   1.48253       .     S
C144  C142   1.41980       .     D
C144  C146   1.41996       .     S
C144  O158   1.38519       .     D
C145  C143   1.41991       .     D
C145  C147   1.42086       .     S
C145  O159   1.38517       .     S
C146  C136   1.41801       .     T
C146  C144   1.41996       .     S
C146  O155   1.38499       .     T
C147  C137   1.41896       .     S
C147  C145   1.42086       .     T
C147  O154   1.38480       .     S
C148  C142   1.49052       .     S
C148  C149   1.36295       .     D
C148  O157   1.38427       .     D
C149  C143   1.48253       .     S
C149  C148   1.36295       .     S
C149  O156   1.38723       .     T
O150  Zn17   4.17480   1_565     S
O150  C134   1.32213       .     T
O151  Zn13   4.58142       .     S
O151  C135   1.32177       .     T
O152  Zn18   3.71542   1_565     S
O152  C134   1.32082       .     S
O153  Zn12   4.20453       .     D
O153  C135   1.31998       .     S
O154  H128   0.98923       .     S
O154  C147   1.38480       .     S
O155  H129   0.98919       .     A
O155  C146   1.38499       .     A
O156  H130   0.98875       .     A
O156  C149   1.38723       .     S
O157  H131   0.99197       .     A
O157  C148   1.38427       .     S
O158  H132   0.98813       .     A
O158  C144   1.38519       .     A
O159  H133   0.98814       .     S
O159  C145   1.38517       .     S
F160  C138   1.35838       .     D
F161  C139   1.35833   1_655     S
F162  C141   1.35897       .     S
F163  C140   1.35853       .     D
C164  C165   1.50622       .     S
C164  O172   1.27820       .     S
C164  O175   1.27804       .     A
C165  C164   1.50622       .     A
C165  C166   1.25459       .     S
C166  C165   1.25459       .     A
C166  C167   1.49884       .     A
C167  C166   1.49884       .     S
C167  C168   1.26023       .     A
C168  C167   1.26023       .     A
C168  C169   1.49994       .     A
C169  C168   1.49994       .     S
C169  C170   1.25555       .     A
C170  C169   1.25555       .     A
C170  C171   1.50659       .     A
C171  C170   1.50659       .     S
C171  O173   1.28137       .     A
C171  O174   1.28023   1_565     A
O172  Zn14   3.66836       .     A
O172  C164   1.27820       .     A
O173  Zn17   1.72968   1_565     A
O173  C171   1.28137       .     A
O174  Zn17   1.67651       .     A
O174  C171   1.28023   1_545     S
O175  Zn13   2.26975       .     S
O175  C164   1.27804       .     A
C176  C180   1.39202       .     A
C176  C186   1.39768       .     A
C176  H226   1.08305       .     S
C177  C181   1.39203       .     A
C177  C186   1.39760       .     A
C177  H227   1.08313       .     A
C178  C182   1.39202       .     S
C178  C187   1.39777       .     A
C178  H228   1.08291       .     S
C179  C183   1.39202       .     S
C179  C187   1.39778       .     D
C179  H229   1.08314       .     S
C180  C176   1.39202       .     S
C180  C184   1.41012       .     D
C180  F214   1.35770       .     S
C181  C177   1.39203       .     S
C181  C184   1.41010       .     A
C181  F215   1.35762       .     A
C182  C178   1.39202       .     A
C182  C185   1.40997       .     S
C182  F216   1.35757       .     A
C183  C179   1.39202       .     S
C183  C185   1.41004       .     A
C183  F217   1.35783       .     A
C184  C180   1.41012       .     S
C184  C181   1.41010       .     S
C184  C188   1.47147       .     D
C185  C182   1.40997       .     S
C185  C183   1.41004       .     D
C185  C189   1.47147       .     S
C186  C176   1.39768       .     S
C186  C177   1.39760       .     S
C186  N230   1.43049       .     A
C187  C178   1.39777       .     A
C187  C179   1.39778       .     A
C187  N231   1.43048       .     S
C188  C184   1.47147       .     A
C188  O232   1.29017       .     S
C188  O233   1.29018       .     A
C189  C185   1.47147       .     A
C189  O234   1.29017       .     S
C189  O235   1.29018       .     S
C190  C193   1.41945       .     D
C190  C194   1.42075       .     S
C190  C196   1.41521       .     S
C191  C192   1.41945       .     D
C191  C194   1.42076       .     S
C191  C197   1.41537       .     S
C192  C191   1.41945       .     A
C192  C195   1.42070       .     A
C192  C198   1.41557       .     S
C193  C190   1.41945       .     A
C193  C195   1.42070       .     A
C193  C199   1.41557       .     S
C194  C190   1.42075       .     A
C194  C191   1.42076       .     A
C194  C208   1.41989   1_556     A
C195  C192   1.42070       .     S
C195  C193   1.42070       .     A
C195  C209   1.41989       .     A
C196  C190   1.41521       .     A
C196  C200   1.38775       .     S
C196  H218   1.07638       .     A
C197  C191   1.41537       .     A
C197  C201   1.38776   1_556     A
C197  H219   1.07625       .     A
C198  C192   1.41557       .     A
C198  C202   1.38747       .     A
C198  H220   1.07619       .     A
C199  C193   1.41557       .     S
C199  C203   1.38748       .     S
C199  H221   1.07618       .     A
C200  C196   1.38775       .     A
C200  C204   1.39512   1_556     A
C200  H222   1.08346   1_556     S
C201  C197   1.38776   1_554     A
C201  C205   1.39495       .     A
C201  H223   1.08367       .     A
C202  C198   1.38747       .     S
C202  C206   1.39514       .     A
C202  H224   1.08374       .     S
C203  C199   1.38748       .     S
C203  C207   1.39497       .     D
C203  H225   1.08374       .     S
C204  C200   1.39512   1_554     S
C204  C208   1.40800       .     D
C204  C210   1.40168       .     S
C205  C201   1.39495       .     S
C205  C208   1.40797       .     A
C205  C211   1.40168       .     A
C206  C202   1.39514       .     A
C206  C209   1.40800       .     S
C206  C212   1.40140       .     A
C207  C203   1.39497       .     S
C207  C209   1.40820       .     A
C207  C213   1.40141       .     A
C208  C194   1.41989   1_554     S
C208  C204   1.40800       .     S
C208  C205   1.40797       .     D
C209  C195   1.41989       .     S
C209  C206   1.40800       .     S
C209  C207   1.40820       .     S
C210  C204   1.40168       .     S
C210  N230   1.36724       .     S
C210  O236   1.34988       .     S
C211  C205   1.40168       .     S
C211  N230   1.36721       .     S
C211  O237   1.34988       .     S
C212  C206   1.40140       .     S
C212  N231   1.36692       .     S
C212  O238   1.35012       .     S
C213  C207   1.40141       .     S
C213  N231   1.36694       .     S
C213  O239   1.35012       .     S
F214  C180   1.35770       .     S
F215  C181   1.35762       .     S
F216  C182   1.35757       .     S
F217  C183   1.35783       .     S
H218  C196   1.07638       .     S
H219  C197   1.07625       .     S
H220  C198   1.07619       .     S
H221  C199   1.07618       .     S
H222  C200   1.08346   1_554     S
H223  C201   1.08367       .     S
H224  C202   1.08374       .     S
H225  C203   1.08374       .     S
H226  C176   1.08305       .     S
H227  C177   1.08313       .     S
H228  C178   1.08291       .     S
H229  C179   1.08314       .     S
N230  C186   1.43049       .     S
N230  C210   1.36724       .     S
N230  C211   1.36721       .     S
N231  C187   1.43048       .     S
N231  C212   1.36692       .     S
N231  C213   1.36694       .     S
O232  Zn13   4.09765       .     S
O232  C188   1.29017       .     S
O233  Zn12   4.35954       .     S
O233  C188   1.29018       .     S
O234  Zn15   3.98848       .     S
O234  C189   1.29017       .     S
O235  Zn14   4.45295       .     S
O235  C189   1.29018       .     S
O236  C210   1.34988       .     S
O237  C211   1.34988       .     S
O238  C212   1.35012       .     S
O239  C213   1.35012       .     S
