data_I
_chemical_name_common  'results/normal_generation/cif/sample_5'
_cell_length_a 21.99449
_cell_length_b 22.18715
_cell_length_c 22.24156
_cell_angle_alpha 65.93783
_cell_angle_beta  62.14130
_cell_angle_gamma 80.72820
_space_group_name_H-M_alt      'P 1'


loop_
_space_group_symop_operation_xyz
  'x, y, z' 

loop_
_atom_site_label
_atom_site_fract_x
_atom_site_fract_y
_atom_site_fract_z
_atom_site_type_symbol
H0    0.45957205 0.16262102 0.4172493     H
H1    0.48799017 0.34964183 0.46695334     H
H2    0.5865392 0.21351212 0.3834168     H
H3    0.3596749 0.29944113 0.49905547     H
H4    0.4019672 0.1690159 0.55795926     H
H5    0.54491824 0.34360483 0.3250362     H
H6    0.2923099 0.2398769 0.30343133     H
H7    0.70509607 0.18242598 0.5400456     H
H8    0.5448722 0.3131459 0.16046996     H
H9    0.5135683 0.37122497 0.20649807     H
H10   0.576759 0.46310338 0.08887772     H
H11   0.6333219 0.39879915 0.11147904     H
H12   0.60865664 0.4063544 0.041963495     H
H13   0.46425202 0.089173056 0.64245033     H
H14   0.45920518 0.12893987 0.702487     H
H15   0.38231665 0.038944338 0.8104753     H
H16   0.34901547 0.07292104 0.74355334     H
H17   0.39111537 0.99489766 0.7540385     H
C18   0.42919838 0.32877702 0.16627644     C
C19   0.5760396 0.077548794 0.6722234     C
C20   0.5351836 0.23306307 0.409305     C
C21   0.41112176 0.2798391 0.4737518     C
C22   0.46609768 0.20487814 0.42860565     C
C23   0.48104438 0.30795458 0.45505676     C
C24   0.4038047 0.29218352 0.29867047     C
C25   0.56731224 0.17605604 0.56622094     C
C26   0.5130736 0.30406207 0.3780454     C
C27   0.43380898 0.20864604 0.5050523     C
C28   0.4441347 0.27557305 0.3978389     C
C29   0.50279015 0.2370311 0.4852658     C
C30   0.41806015 0.28842783 0.34549785     C
C31   0.5379013 0.20745789 0.53056157     C
C32   0.33630466 0.26298332 0.25126305     C
C33   0.66994125 0.14364861 0.58767545     C
C34   0.39309326 0.29166025 0.24096343     C
C35   0.6015665 0.134621 0.6077995     C
C36   0.5286945 0.36480767 0.15443489     C
C37   0.59066767 0.4111801 0.09541508     C
C38   0.45999348 0.08103976 0.6970041     C
C39   0.39144933 0.044500947 0.75496644     C
N40   0.39465943 0.32216918 0.13296166     N
N41   0.3371565 0.28181782 0.18556586     N
N42   0.6852027 0.095566526 0.6385162     N
N43   0.62769973 0.05521515 0.69112045     N
O44   0.47411925 0.38231617 0.13440032     O
O45   0.51418006 0.041868355 0.7075314     O
C46   0.5275957 0.71279323 0.87646174     C
C47   0.4947171 0.6679217 0.949657     C
C48   0.43319517 0.58395916 0.086618304     C
C49   0.58911747 0.79675585 0.7395005     C
C50   0.5557079 0.75115365 0.81387746     C
C51   0.46660492 0.6295613 0.0122413635     C
O52   0.56276613 0.8529679 0.71940637     O
O53   0.37743342 0.6000333 0.13199794     O
O54   0.6448793 0.7806817 0.69412076     O
O55   0.45954666 0.52774704 0.10671246     O
H56   0.39989236 0.27686998 0.96002036     H
H57   0.6464964 0.11207956 0.85369307     H
H58   0.33594757 0.31551316 0.062380314     H
H59   0.70879155 0.08255449 0.7466963     H
H60   0.4595021 0.18214405 0.21632922     H
H61   0.40384212 0.07534412 0.2962376     H
H62   0.38717672 0.072557084 0.22553933     H
H63   0.33747673 0.12491656 0.27517176     H
H64   0.53825116 0.22690271 0.63863295     H
H65   0.47662255 0.1478053 0.63929933     H
H66   0.44836473 0.13395564 0.73437846     H
H67   0.511993 0.08181147 0.69288886     H
H68   0.60703236 0.21469817 0.00019216537     H
H69   0.5823701 0.18647577 0.09750223     H
H70   0.63792175 0.13832474 0.045201182     H
H71   0.51244706 0.09226771 0.12369919     H
H72   0.5449548 0.11068058 0.029152751     H
H73   0.5403997 0.29555544 0.79348475     H
H74   0.54645395 0.32436538 0.70294505     H
H75   0.46738112 0.33114946 0.7793949     H
H76   0.46314213 0.23931068 0.7398784     H
H77   0.44227803 0.21307412 0.833611     H
C78   0.6753145 0.10345049 0.63710356     C
C79   0.34395546 0.27290303 0.1927265     C
C80   0.40934104 0.25640634 0.0075513124     C
C81    0.62643 0.12551515  0.81479     C
C82   0.3725309 0.2771349 0.06665647     C
C83   0.6613748 0.108157486 0.7536527     C
C84   0.38269755 0.24861658 0.13039076     C
C85   0.63637304 0.12431419 0.70161027     C
C86   0.4314433 0.19701776 0.13262796     C
C87   0.5757163 0.16207586 0.71104926     C
C88   0.47190207 0.18059957 0.07011044     C
C89   0.54333687 0.18380764 0.7709759     C
C90   0.4598579 0.20978639 0.007863045     C
C91   0.5671313 0.1617139 0.8250273     C
C92   0.49892062 0.19230312 0.9437859     C
C93   0.5311739 0.17735155 0.8906832     C
C94   0.389263 0.10529629 0.25133693     C
C95   0.49329692 0.13292205 0.68326163     C
C96   0.53008884 0.1338075 0.069660544     C
C97   0.59307146 0.17056748 0.05227387     C
C98   0.48558924 0.23240443 0.77743846     C
C99   0.51159626 0.29968762 0.76240724     C
N100  0.4398109 0.15863924 0.19734287     N
N101  0.54778415 0.17786454 0.6604558     N
O102  0.65723646 0.13320282 0.58215827     O
O103  0.3632102 0.24490567 0.24668169     O
O104  0.7247703 0.058467407 0.6401557     O
O105  0.29567638 0.31964102 0.18868434     O
H106  0.0988681 0.5667272 0.38224754     H
H107  0.9378167 0.80358976 0.4383054     H
H108  0.1445229 0.52502185 0.28395495     H
H109  0.88822526 0.8511314 0.5340415     H
H110  0.093978316 0.7195912 0.09951906     H
H111  0.9838222 0.71261895 0.1055251     H
H112  0.9470631 0.6733737 0.20425697     H
H113  0.0027597996 0.6279484 0.14803918     H
H114  0.98993474 0.6498986 0.69319344     H
H115  0.88367593 0.5977118 0.79681176     H
H116  0.8864438 0.5855608 0.7202125     H
H117  0.83631754 0.6503379 0.7485178     H
H118  0.086821586 0.7873212 0.27753484     H
H119  0.09830987 0.8190892 0.1841562     H
H120  0.031701762 0.8495022 0.2510918     H
H121  0.98852336 0.76812506 0.22140421     H
H122  0.9627088 0.7479788 0.3152582     H
H123  0.12026954 0.66808736 0.4909632     H
H124  0.09870791 0.66111064 0.58273154     H
H125  0.12259154 0.5891994 0.5592527     H
H126  0.9954723 0.58742136 0.63177705     H
H127  0.017202877 0.5946886 0.542845     H
N128  0.9440386 0.66854787  0.69303     N
C129  0.8844574 0.8003293 0.6704078     C
C130  0.13606237 0.57720625 0.15463175     C
C131  0.08974842 0.5928113 0.335169     C
C132  0.9419665 0.7787032 0.4889747     C
C133  0.11548118 0.5695339 0.2784412     C
C134  0.9133997 0.80505764 0.5438027     C
C135  0.105124086 0.6035114 0.21523628     C
C136  0.91553926 0.7713742 0.6114829     C
C137  0.06690898 0.6629009 0.21123827     C
C138  0.9472787 0.70861334 0.6227449     C
C139  0.04270419 0.6865845 0.26882356     C
C140  0.98039126 0.68464005 0.5648529     C
C141  0.053462356 0.65044284 0.33135924     C
C142  0.9762264 0.7196571 0.49834642     C
C143  0.0277359 0.6730523 0.3916166     C
C144  0.0048106196 0.69442636 0.43991545     C
C145  0.9935473 0.67708313 0.15225469     C
C146  0.8846704 0.6232077 0.7418769     C
C147  0.008588239 0.7524187 0.2625402     C
C148  0.05950896 0.80510485 0.24259065     C
C149  0.019744273 0.6216322 0.5741732     C
C150  0.09491607 0.6360588 0.5503364     C
N151  0.052476253 0.7003365 0.1503172     N
O152  0.8861382 0.7595405 0.7334165     O
O153  0.13542077 0.6187399 0.091196425     O
O154  0.8594662 0.86254495 0.6553082     O
O155  0.16209279 0.51573545 0.16930474     O
C156  0.95988023 0.06178897 0.5727467     C
C157  0.06255925 0.3162819 0.25108624     C
C158  0.040762257 0.26165316 0.31990725     C
C159  0.022314588 0.2157319 0.37790203     C
C160  0.00060907786 0.16210532 0.44572645     C
C161  0.98195004 0.11626515 0.503798     C
O162  0.9981726 0.011961756 0.57957834     O
O163  0.9023107 0.06354352 0.6265636     O
O164  0.120314084 0.3147097 0.19743152     O
O165  0.024384944 0.3663252 0.24444777     O
Zn166 0.27537698 0.53449833 0.11584037    Zn
Zn167 0.20711209 0.41306508 0.12718852    Zn
Zn168 0.3479006 0.3958235 0.13758157    Zn
Zn169 0.2117899 0.4135458 0.26814303    Zn
O170  0.26054394 0.43923518 0.16219005     O
O171  0.7604872 0.9401069 0.6645726     O
Zn172 0.82636464 0.948618 0.6913345    Zn
Zn173 0.77761483 0.8590481 0.6540756    Zn
Zn174 0.67110956 0.94323623 0.7344303    Zn
Zn175 0.7668824 0.009550452 0.5784308    Zn
H176  0.94533503 0.68210155 0.93405825     H
H177  0.08999079 0.8570978 0.8892505     H
H178  0.09071826 0.68489534 0.8713007     H
H179  0.9429423 0.85527825 0.9506116     H
H180  0.9403547 0.7202358 0.04321015     H
H181  0.09401762 0.81943387 0.77914196     H
H182  0.7710959 0.8037053 0.83908963     H
H183  0.2541858 0.62817657 0.9850746     H
H184  0.018203342 0.7756766 0.66979855     H
H185  0.032781634 0.8463902 0.68376964     H
H186  0.10300746 0.9031345 0.55003756     H
H187  0.13630587 0.82380617 0.58629054     H
H188  0.08941135 0.8334236 0.5347777     H
H189  0.99403775 0.6293877 0.13110244     H
H190  0.03134951 0.67471033 0.15969908     H
H191  0.9444322 0.62361205 0.2872764     H
H192  0.9032821 0.6618807 0.22778738     H
H193  0.9100868 0.57319736 0.26264846     H
C194  0.9088511 0.8307237 0.6825672     C
C195  0.11441342 0.58264387 0.14355397     C
C196  0.05721223 0.7235354 0.88899857     C
C197  0.9767291 0.8166089 0.9333565     C
C198  0.97817373 0.72161704 0.9240138     C
C199  0.056816984 0.8182278 0.8987112     C
C200  0.9118074 0.8156872 0.7993065     C
C201  0.11796297 0.6713345 0.024988055     C
C202  0.05985752 0.7968071 0.83907056     C
C203  0.9745946 0.7429569 0.98332113     C
C204  0.9809926 0.7945884 0.874559     C
C205  0.053451672 0.74506146 0.9478758     C
C206  0.94165015 0.8112999 0.8337562     C
C207  0.090883985 0.7085289 0.9892549     C
C208  0.80958366 0.80641085 0.78506535     C
C209  0.21504174 0.6069464 0.041123033     C
C210  0.87944263 0.81378704 0.75811327     C
C211  0.14699227 0.6233308 0.06866765     C
C212  0.026122168 0.830485 0.645874     C
C213  0.09278978 0.8488922 0.57473767     C
C214  0.0052796463 0.627772 0.17550564     C
C215  0.93654275 0.6209965 0.24260807     C
N216  0.8575755 0.8332206 0.6650878     N
N217  0.79632103 0.81853276 0.7283761     N
N218  0.22435533 0.55982363 0.0969038     N
N219  0.16310093 0.5451359 0.1601919     N
O220  0.9714996 0.86423516 0.6307818     O
O221  0.04478187 0.5724329 0.192631     O
loop_
_geom_bond_atom_site_label_1
_geom_bond_atom_site_label_2
_geom_bond_distance
_geom_bond_site_symmetry_2
_ccdc_geom_bond_type
H0    C22    1.11076       .     S
H1    C23    1.10982       .     S
H2    C20    1.11064       .     S
H3    C21    1.11001       .     S
H4    C27    1.11032       .     S
H5    C26    1.11045       .     S
H6    C32    1.08210       .     S
H7    C33    1.07978       .     S
H8    C36    1.11634       .     D
H9    C36    1.10949       .     S
H10   C37    1.11055       .     S
H11   C37    1.11060       .     S
H12   C37    1.10991       .     S
H13   C38    1.11097       .     S
H14   C38    1.11464       .     S
H15   C39    1.10990       .     D
H16   C39    1.11102       .     S
H17   C39    1.11039   1_565     S
C18   C34    1.38945       .     S
C18   N40    1.34096       .     T
C18   O44    1.38804       .     S
C19   C35    1.40338       .     S
C19   N43    1.34473       .     S
C19   O45    1.39144       .     S
C20   H2     1.11064       .     S
C20   C22    1.53685       .     S
C20   C26    1.54187       .     S
C20   C29    1.53161       .     S
C21   H3     1.11001       .     S
C21   C23    1.55794       .     S
C21   C27    1.55005       .     S
C21   C28    1.53276       .     S
C22   H0     1.11076       .     S
C22   C20    1.53685       .     S
C22   C27    1.53967       .     S
C22   C28    1.53342       .     S
C23   H1     1.10982       .     T
C23   C21    1.55794       .     S
C23   C26    1.55271       .     S
C23   C29    1.53363       .     S
C24   C30    1.18996       .     D
C24   C34    1.41373       .     S
C25   C31    1.19020       .     S
C25   C35    1.41516       .     S
C26   H5     1.11045       .     S
C26   C20    1.54187       .     D
C26   C23    1.55271       .     S
C26   C28    1.53314       .     S
C27   H4     1.11032       .     S
C27   C21    1.55005       .     S
C27   C22    1.53967       .     S
C27   C29    1.53300       .     S
C28   C21    1.53276       .     S
C28   C22    1.53342       .     S
C28   C26    1.53314       .     S
C28   C30    1.43735       .     S
C29   C20    1.53161       .     S
C29   C23    1.53363       .     S
C29   C27    1.53300       .     S
C29   C31    1.43758       .     S
C30   C24    1.18996       .     D
C30   C28    1.43735       .     S
C31   C25    1.19020       .     S
C31   C29    1.43758       .     S
C32   H6     1.08210       .     S
C32   C34    1.37376       .     S
C32   N41    1.33758       .     S
C33   H7     1.07978       .     D
C33   C35    1.37730       .     S
C33   N42    1.33606       .     S
C34   C18    1.38945       .     S
C34   C24    1.41373       .     T
C34   C32    1.37376       .     S
C35   C19    1.40338       .     S
C35   C25    1.41516       .     S
C35   C33    1.37730       .     S
C36   H8     1.11634       .     S
C36   H9     1.10949       .     S
C36   C37    1.52250       .     S
C36   O44    1.41379       .     S
C37   H10    1.11055       .     S
C37   H11    1.11060       .     S
C37   H12    1.10991       .     S
C37   C36    1.52250       .     S
C38   H13    1.11097       .     S
C38   H14    1.11464       .     S
C38   C39    1.52223       .     S
C38   O45    1.41126       .     S
C39   H15    1.10990       .     T
C39   H16    1.11102       .     S
C39   H17    1.11039   1_545     S
C39   C38    1.52223       .     S
N40   C18    1.34096       .     D
N40   N41    1.37759       .     S
N40   Zn167  4.32464       .     S
N41   C32    1.33758       .     S
N41   N40    1.37759       .     S
N41   Zn167  4.00630       .     D
N42   C33    1.33606       .     S
N42   N43    1.37759       .     S
N42   Zn172  4.32126   1_545     S
N43   C19    1.34473       .     S
N43   N42    1.37759       .     S
N43   Zn172  4.62241   1_545     S
O44   C18    1.38804       .     D
O44   C36    1.41379       .     S
O45   C19    1.39144       .     S
O45   C38    1.41126       .     T
C46   C47    1.40516       .     S
C46   C50    1.20142       .     T
C47   C46    1.40516       .     S
C47   C51    1.20142   1_556     D
C48   C51    1.42789       .     S
C48   O53    1.28288       .     D
C48   O55    1.28287       .     S
C49   C50    1.42789       .     S
C49   O52    1.28287       .     T
C49   O54    1.28288       .     S
C50   C46    1.20142       .     T
C50   C49    1.42789       .     S
C51   C47    1.20142   1_554     D
C51   C48    1.42789       .     S
O52   C49    1.28287       .     S
O52   Zn174  3.55375       .     S
O53   C48    1.28288       .     D
O53   Zn166  3.08443       .     S
O54   C49    1.28288       .     S
O54   Zn173  3.20661       .     S
O55   C48    1.28287       .     S
O55   Zn166  3.94115       .     S
H56   C80    1.07259   1_556     S
H57   C81    1.06607       .     A
H58   C82    1.07993       .     A
H59   C83    1.07900       .     S
H60   N100   1.03013       .     A
H61   C94    1.10960       .     A
H62   C94    1.11094       .     S
H63   C94    1.10994       .     S
H64   N101   1.02679       .     A
H65   C95    1.11015       .     S
H66   C95    1.11070       .     A
H67   C95    1.11127       .     S
H68   C97    1.11103       .     S
H69   C97    1.11058       .     S
H70   C97    1.10858       .     S
H71   C96    1.10483       .     S
H72   C96    1.10884       .     S
H73   C99    1.10742       .     T
H74   C99    1.11077       .     S
H75   C99    1.10846       .     S
H76   C98    1.10536       .     S
H77   C98    1.11118       .     S
C78   C85    1.50721       .     S
C78   O102   1.34128       .     S
C78   O104   1.35936       .     S
C79   C84    1.51519       .     A
C79   O103   1.33703       .     A
C79   O105   1.36725       .     S
C80   H56    1.07259   1_554     S
C80   C82    1.40481       .     A
C80   C90    1.39122       .     S
C81   H57    1.06607       .     A
C81   C83    1.39391       .     S
C81   C91    1.38996       .     S
C82   H58    1.07993       .     S
C82   C80    1.40481       .     S
C82   C84    1.40679       .     A
C83   H59    1.07900       .     S
C83   C81    1.39391       .     A
C83   C85    1.40132       .     S
C84   C79    1.51519       .     S
C84   C82    1.40679       .     D
C84   C86    1.43892       .     S
C85   C78    1.50721       .     S
C85   C83    1.40132       .     S
C85   C87    1.43087       .     D
C86   C84    1.43892       .     S
C86   C88    1.41781       .     S
C86   N100   1.42419       .     S
C87   C85    1.43087       .     S
C87   C89    1.42915       .     S
C87   N101   1.42186       .     S
C88   C86    1.41781       .     A
C88   C90    1.40096       .     A
C88   C96    1.51134       .     S
C89   C87    1.42915       .     A
C89   C91    1.40862       .     A
C89   C98    1.52017       .     S
C90   C80    1.39122       .     S
C90   C88    1.40096       .     A
C90   C92    1.45561   1_554     S
C91   C81    1.38996       .     A
C91   C89    1.40862       .     S
C91   C93    1.45728       .     S
C92   C90    1.45561   1_556     S
C92   C93    1.21197       .     S
C93   C91    1.45728       .     S
C93   C92    1.21197       .     S
C94   H61    1.10960       .     T
C94   H62    1.11094       .     S
C94   H63    1.10994       .     S
C94   N100   1.44781       .     S
C95   H65    1.11015       .     S
C95   H66    1.11070       .     S
C95   H67    1.11127       .     S
C95   N101   1.44648       .     S
C96   H71    1.10483       .     A
C96   H72    1.10884       .     A
C96   C88    1.51134       .     S
C96   C97    1.52969       .     S
C97   H68    1.11103       .     A
C97   H69    1.11058       .     S
C97   H70    1.10858       .     A
C97   C96    1.52969       .     S
C98   H76    1.10536       .     S
C98   H77    1.11118       .     S
C98   C89    1.52017       .     S
C98   C99    1.53523       .     A
C99   H73    1.10742       .     S
C99   H74    1.11077       .     A
C99   H75    1.10846       .     S
C99   C98    1.53523       .     S
N100  H60    1.03013       .     D
N100  C86    1.42419       .     S
N100  C94    1.44781       .     D
N101  H64    1.02679       .     S
N101  C87    1.42186       .     S
N101  C95    1.44648       .     S
O102  C78    1.34128       .     S
O102  Zn174  4.27072   1_545     S
O103  C79    1.33703       .     S
O103  Zn168  3.31484       .     A
O104  C78    1.35936       .     A
O104  Zn172  3.25405   1_545     S
O105  C79    1.36725       .     S
O105  Zn167  2.97301       .     A
H106  C131   1.06598       .     S
H107  C132   1.07505       .     S
H108  C133   1.08146       .     A
H109  C134   1.07130       .     S
H110  N151   1.02978       .     S
H111  C145   1.11032       .     S
H112  C145   1.11092       .     S
H113  C145   1.11028   1_455     A
H114  N128   1.02851       .     S
H115  C146   1.10849       .     A
H116  C146   1.10974       .     S
H117  C146   1.11112       .     S
H118  C148   1.10929       .     S
H119  C148   1.11068       .     T
H120  C148   1.10897       .     S
H121  C147   1.10504   1_655     S
H122  C147   1.11124   1_655     S
H123  C150   1.11087       .     S
H124  C150   1.11028       .     S
H125  C150   1.10975       .     S
H126  C149   1.09588   1_655     S
H127  C149   1.11034       .     A
N128  H114   1.02851       .     A
N128  C138   1.42202       .     S
N128  C146   1.45037       .     S
C129  C136   1.51836       .     A
C129  O152   1.33707       .     A
C129  O154   1.36762       .     S
C130  C135   1.50895       .     A
C130  O153   1.33949       .     A
C130  O155   1.36178       .     S
C131  H106   1.06598       .     S
C131  C133   1.39598       .     S
C131  C141   1.38750       .     S
C132  H107   1.07505       .     S
C132  C134   1.40384       .     D
C132  C142   1.39052       .     S
C133  H108   1.08146       .     S
C133  C131   1.39598       .     S
C133  C135   1.40576       .     D
C134  H109   1.07130       .     S
C134  C132   1.40384       .     S
C134  C136   1.40150       .     S
C135  C130   1.50895       .     S
C135  C133   1.40576       .     S
C135  C137   1.43809       .     S
C136  C129   1.51836       .     A
C136  C134   1.40150       .     A
C136  C138   1.43347       .     S
C137  C135   1.43809       .     S
C137  C139   1.42175       .     A
C137  N151   1.42334       .     S
C138  N128   1.42202       .     S
C138  C136   1.43347       .     A
C138  C140   1.42426       .     S
C139  C137   1.42175       .     S
C139  C141   1.40375       .     S
C139  C147   1.51476       .     S
C140  C138   1.42426       .     A
C140  C142   1.40236       .     S
C140  C149   1.51259   1_655     A
C141  C131   1.38750       .     S
C141  C139   1.40375       .     S
C141  C143   1.45466       .     S
C142  C132   1.39052       .     T
C142  C140   1.40236       .     S
C142  C144   1.45390   1_655     S
C143  C141   1.45466       .     S
C143  C144   1.21048       .     S
C144  C142   1.45390   1_455     S
C144  C143   1.21048       .     S
C145  H111   1.11032       .     S
C145  H112   1.11092       .     A
C145  H113   1.11028   1_655     A
C145  N151   1.44675   1_655     S
C146  H115   1.10849       .     S
C146  H116   1.10974       .     A
C146  H117   1.11112       .     A
C146  N128   1.45037       .     S
C147  H121   1.10503   1_455     A
C147  H122   1.11124   1_455     A
C147  C139   1.51476       .     S
C147  C148   1.53368       .     S
C148  H118   1.10929       .     S
C148  H119   1.11068       .     S
C148  H120   1.10897       .     S
C148  C147   1.53368       .     D
C149  H126   1.09587   1_455     S
C149  H127   1.11034       .     S
C149  C140   1.51259   1_455     S
C149  C150   1.52646       .     D
C150  H123   1.11087       .     D
C150  H124   1.11028       .     S
C150  H125   1.10975       .     S
C150  C149   1.52646       .     T
N151  H110   1.02978       .     S
N151  C137   1.42334       .     T
N151  C145   1.44675   1_455     S
O152  C129   1.33707       .     S
O152  Zn173  3.57032       .     D
O153  C130   1.33949       .     D
O153  Zn166  3.48670       .     S
O154  C129   1.36762       .     S
O154  Zn175  3.77819   1_565     T
O155  C130   1.36178       .     S
O155  Zn169  2.92416       .     T
C156  C161   1.42482       .     S
C156  O162   1.27953       .     S
C156  O163   1.28187       .     S
C157  C158   1.42493       .     S
C157  O164   1.28136       .     S
C157  O165   1.28115       .     S
C158  C157   1.42493       .     S
C158  C159   1.19955       .     S
C159  C158   1.19955       .     S
C159  C160   1.40198       .     S
C160  C159   1.40198       .     S
C160  C161   1.19957   1_455     S
C161  C156   1.42482       .     S
C161  C160   1.19957   1_655     S
O162  C156   1.27953       .     S
O162  Zn173  5.56740   1_545     S
O163  C156   1.28187       .     S
O163  Zn174  5.14680   1_545     S
O164  C157   1.28136       .     S
O164  Zn168  4.97888       .     S
O165  C157   1.28115       .     S
O165  Zn169  4.71564       .     S
Zn166 O53    3.08443       .     S
Zn166 O55    3.94115       .     S
Zn166 O153   3.48670       .     S
Zn166 O170   1.94104       .     S
Zn167 N40    4.32464       .     D
Zn167 N41    4.00630       .     S
Zn167 O105   2.97301       .     S
Zn167 O170   1.94109       .     S
Zn168 O103   3.31484       .     S
Zn168 O164   4.97888       .     S
Zn168 O170   1.94156       .     S
Zn168 N218   4.22723       .     D
Zn169 O155   2.92416       .     S
Zn169 O165   4.71564       .     S
Zn169 O170   1.94115       .     S
Zn169 N219   3.33390       .     T
O170  Zn166  1.94104       .     S
O170  Zn167  1.94109       .     S
O170  Zn168  1.94156       .     S
O170  Zn169  1.94115       .     S
O171  Zn172  1.86420       .     S
O171  Zn173  1.86354       .     S
O171  Zn174  1.86354       .     S
O171  Zn175  1.86420   1_565     S
Zn172 N42    4.32126   1_565     S
Zn172 N43    4.62241   1_565     S
Zn172 O104   3.25405   1_565     S
Zn172 O171   1.86420       .     S
Zn173 O54    3.20661       .     S
Zn173 O152   3.57032       .     S
Zn173 O162   5.56740   1_565     S
Zn173 O171   1.86354       .     S
Zn174 O52    3.55375       .     T
Zn174 O102   4.27072   1_565     S
Zn174 O163   5.14680   1_565     S
Zn174 O171   1.86354       .     S
Zn175 O154   3.77819   1_545     D
Zn175 O171   1.86420   1_545     S
Zn175 N216   4.23428   1_545     S
Zn175 N217   4.37166   1_545     S
H176  C198   1.11076       .     S
H177  C199   1.10982       .     D
H178  C196   1.11064       .     S
H179  C197   1.11002       .     S
H180  C203   1.11032   1_554     S
H181  C202   1.11045       .     S
H182  C208   1.08210       .     S
H183  C209   1.07978   1_556     S
H184  C212   1.11634       .     S
H185  C212   1.10949       .     S
H186  C213   1.11054       .     S
H187  C213   1.11061       .     S
H188  C213   1.10991       .     S
H189  C214   1.11097   1_655     S
H190  C214   1.11464       .     S
H191  C215   1.10990       .     S
H192  C215   1.11102       .     D
H193  C215   1.11039       .     S
C194  C210   1.38945       .     S
C194  N216   1.34096       .     S
C194  O220   1.38804       .     S
C195  C211   1.40338       .     S
C195  N219   1.34472       .     S
C195  O221   1.39144       .     D
C196  H178   1.11064       .     S
C196  C198   1.53685   1_455     S
C196  C202   1.54187       .     S
C196  C205   1.53161       .     T
C197  H179   1.11002       .     S
C197  C199   1.55794   1_655     S
C197  C203   1.55005       .     S
C197  C204   1.53276       .     S
C198  H176   1.11076       .     S
C198  C196   1.53685   1_655     S
C198  C203   1.53967       .     S
C198  C204   1.53342       .     S
C199  H177   1.10982       .     S
C199  C197   1.55794   1_455     S
C199  C202   1.55271       .     S
C199  C205   1.53363       .     S
C200  C206   1.18996       .     S
C200  C210   1.41373       .     S
C201  C207   1.19020   1_554     S
C201  C211   1.41516       .     S
C202  H181   1.11045       .     T
C202  C196   1.54187       .     S
C202  C199   1.55271       .     S
C202  C204   1.53314   1_455     S
C203  H180   1.11032   1_556     D
C203  C197   1.55005       .     S
C203  C198   1.53967       .     S
C203  C205   1.53300   1_655     S
C204  C197   1.53276       .     S
C204  C198   1.53342       .     D
C204  C202   1.53314   1_655     S
C204  C206   1.43735       .     S
C205  C196   1.53161       .     S
C205  C199   1.53363       .     S
C205  C203   1.53300   1_455     S
C205  C207   1.43758       .     S
C206  C200   1.18996       .     S
C206  C204   1.43735       .     S
C207  C201   1.19020   1_556     S
C207  C205   1.43758       .     S
C208  H182   1.08210       .     S
C208  C210   1.37376       .     S
C208  N217   1.33758       .     S
C209  H183   1.07978   1_554     S
C209  C211   1.37730       .     S
C209  N218   1.33606       .     S
C210  C194   1.38945       .     S
C210  C200   1.41373       .     S
C210  C208   1.37376       .     S
C211  C195   1.40338       .     S
C211  C201   1.41516       .     S
C211  C209   1.37730       .     S
C212  H184   1.11634       .     S
C212  H185   1.10949       .     S
C212  C213   1.52250       .     S
C212  O220   1.41379   1_455     S
C213  H186   1.11054       .     S
C213  H187   1.11061       .     S
C213  H188   1.10991       .     S
C213  C212   1.52250       .     S
C214  H189   1.11097   1_455     S
C214  H190   1.11464       .     S
C214  C215   1.52224   1_455     S
C214  O221   1.41126       .     S
C215  H191   1.10990       .     S
C215  H192   1.11102       .     S
C215  H193   1.11039       .     S
C215  C214   1.52224   1_655     S
N216  Zn175  4.23428   1_565     S
N216  C194   1.34096       .     S
N216  N217   1.37759       .     S
N217  Zn175  4.37166   1_565     S
N217  C208   1.33758       .     S
N217  N216   1.37759       .     S
N218  Zn168  4.22723       .     S
N218  C209   1.33606       .     S
N218  N219   1.37759       .     S
N219  Zn169  3.33390       .     S
N219  C195   1.34472       .     S
N219  N218   1.37759       .     S
O220  C194   1.38804       .     S
O220  C212   1.41379   1_655     S
O221  C195   1.39144       .     S
O221  C214   1.41126       .     S
