data_I
_chemical_name_common  'results/normal_generation/cif/sample_0'
_cell_length_a  9.21252
_cell_length_b 13.98281
_cell_length_c 15.14625
_cell_angle_alpha 89.11427
_cell_angle_beta  90.38044
_cell_angle_gamma 86.78893
_space_group_name_H-M_alt      'P 1'


loop_
_space_group_symop_operation_xyz
  'x, y, z' 

loop_
_atom_site_label
_atom_site_fract_x
_atom_site_fract_y
_atom_site_fract_z
_atom_site_type_symbol
Cu0   0.62186325 0.33927172 0.008345008    Cu
Cu1   0.6147022 0.1587515 0.95018846    Cu
C2    0.906569 0.23439573 0.980164     C
C3    0.3342711 0.26731375 0.98129445     C
C4    0.056850217 0.24598797 0.9803658     C
C5    0.18401287 0.2557053 0.9807106     C
O6    0.860967 0.15128015 0.9961054     O
O7    0.3798361 0.35053945 0.9659527     O
O8    0.8199249 0.30727893 0.9641047     O
O9    0.4208782 0.19454066 0.99795336     O
H10   0.47664458 0.3700015 0.9175616     H
H11   0.7619341 0.12880874 0.044920683     H
H12   0.54880095 0.6755432 0.8445028     H
H13   0.68905157 0.8233657 0.11792314     H
H14   0.2850044 0.9138986 0.84353846     H
H15   0.95466596 0.58446926 0.11815643     H
C16   0.6397719 0.025910497 0.024672508     C
C17   0.5981011 0.47321305 0.9377975     C
C18   0.6427334 0.92554516 0.0326699     C
C19   0.5954186 0.57355213 0.92986286     C
C20   0.5537089 0.87296194 0.97740537     C
C21   0.68539596 0.62597346 0.9846618     C
C22   0.45261806 0.9240575 0.9223904     C
C23   0.7872659 0.57468617 0.039015055     C
C24   0.44745424 0.026509881 0.9193981     C
C25   0.7923412 0.47219297 0.041738033     C
N26   0.5413571 0.07672763 0.96988326     N
N27   0.6972068 0.42219305 0.9919814     N
N28   0.5573399 0.76985294 0.9780125     N
N29   0.6818546 0.72910196 0.98422873     N
N30   0.34538114 0.07680237 0.8615328     N
N31   0.8964109 0.42157227 0.098077655     N
O32   0.5002136 0.42875054 0.88626385     O
O33   0.7368844 0.07061231 0.076672316     O
O34   0.50433207 0.616984 0.86654794     O
O35   0.7331291 0.88228464 0.09639895     O
O36   0.36055288 0.8711597 0.872614     O
O37   0.8801799 0.6273997 0.08838558     O
O38   0.3652106 0.07312298 0.77662265     O
O39   0.21858913 0.10591531 0.8910795     O
O40   0.877815 0.4230946 0.18315518     O
O41   0.02379775 0.3956091 0.06736851     O
H42   0.5235669 0.09977496 0.42271444     H
H43   0.48299468 0.3938184 0.52196366     H
H44   0.6668185 0.10620224 0.55306566     H
H45   0.67966485 0.38258466 0.42557648     H
C46   0.6820776 0.22820964 0.1562043     C
C47   0.5648508 0.2749039 0.806858     C
C48   0.5688736 0.1595838 0.38818708     C
C49   0.52007014 0.3340368 0.564303     C
C50   0.6204057 0.17149127 0.5816542     C
C51   0.6535518 0.31927255 0.3896261     C
C52   0.6038295 0.1510229 0.29953322     C
C53   0.530013 0.34750175 0.65448093     C
C54   0.62565947 0.18166424 0.6724608     C
C55   0.68461347 0.31547016 0.30054972     C
C56   0.6574793 0.23136757 0.252516     C
C57   0.5775793 0.26969907 0.71041936     C
C58   0.59288967 0.243011 0.4329522     C
C59   0.56976885 0.24777678 0.5275853     C
N60   0.58652997 0.058905203 0.2614123     N
N61   0.50373816 0.4426972 0.68549144     N
N62   0.69810104 0.1065766 0.7239207     N
N63   0.7487049 0.39729998 0.26260015     N
O64   0.6607019 0.14900124 0.115356     O
O65   0.5874112 0.35434875 0.84734184     O
O66   0.5307339 0.19790557 0.84908307     O
O67   0.71737915 0.3054444 0.11361473     O
O68   0.48450676 0.048352603 0.20319021     O
O69   0.6367185  0.98327 0.3052878     O
O70   0.61357427 0.4886747 0.7135228     O
O71   0.38650793 0.4918141 0.6595703     O
O72   0.8143176 0.12542956 0.7679111     O
O73   0.6727838 0.017681845 0.7087036     O
O74   0.8668954 0.42658684 0.2983085     O
O75   0.6676959 0.45823756 0.21588598     O
loop_
_geom_bond_atom_site_label_1
_geom_bond_atom_site_label_2
_geom_bond_distance
_geom_bond_site_symmetry_2
_ccdc_geom_bond_type
Cu0   Cu1    2.69042   1_554     S
Cu0   O7     2.31237   1_554     S
Cu0   O8     1.97801   1_554     D
Cu0   N27    1.40397   1_554     D
Cu0   O65    2.46135   1_554     T
Cu0   O67    1.85787       .     S
Cu1   Cu0    2.69042   1_556     S
Cu1   O6     2.36472       .     S
Cu1   O9     1.97242       .     S
Cu1   N26    1.39280       .     D
Cu1   O64    2.53484   1_556     D
Cu1   O66    1.77598       .     T
C2    C4     1.40290   1_655     S
C2    O6     1.27783       .     S
C2    O8     1.27809       .     S
C3    C5     1.40273       .     S
C3    O7     1.27755       .     D
C3    O9     1.27834       .     S
C4    C2     1.40290   1_455     D
C4    C5     1.18686       .     S
C5    C3     1.40273       .     S
C5    C4     1.18686       .     S
O6    Cu1    2.36472       .     S
O6    C2     1.27783       .     S
O7    Cu0    2.31237   1_556     S
O7    C3     1.27755       .     A
O8    Cu0    1.97801   1_556     A
O8    C2     1.27809       .     A
O9    Cu1    1.97242       .     A
O9    C3     1.27834       .     A
H10   O32    0.97775       .     A
H11   O33    0.97833       .     A
H12   O34    0.99032       .     S
H13   O35    0.99037       .     A
H14   O36    0.98827       .     D
H15   O37    0.98789       .     S
C16   C18    1.40546   1_545     A
C16   N26    1.38390   1_554     A
C16   O33    1.37110       .     A
C17   C19    1.40513       .     S
C17   N27    1.38385       .     S
C17   O32    1.37020       .     A
C18   C16    1.40546   1_565     S
C18   C20    1.41115   1_554     S
C18   O35    1.38057       .     S
C19   C17    1.40513       .     S
C19   C21    1.41104       .     S
C19   O34    1.38088       .     D
C20   C18    1.41115   1_556     D
C20   C22    1.40316       .     D
C20   N28    1.44015       .     S
C21   C19    1.41104       .     D
C21   C23    1.40316   1_556     S
C21   N29    1.44048       .     S
C22   C20    1.40316       .     S
C22   C24    1.43070   1_565     S
C22   O36    1.38343       .     S
C23   C21    1.40316   1_554     S
C23   C25    1.43123       .     A
C23   O37    1.38361       .     A
C24   C22    1.43070   1_545     A
C24   N26    1.37913       .     A
C24   N30    1.42929       .     A
C25   C23    1.43123       .     A
C25   N27    1.37878   1_554     A
C25   N31    1.42927       .     S
N26   Cu1    1.39280       .     A
N26   C16    1.38390   1_556     D
N26   C24    1.37913       .     S
N27   Cu0    1.40397   1_556     A
N27   C17    1.38385       .     A
N27   C25    1.37878   1_556     A
N28   C20    1.44015       .     S
N28   N29    1.25422       .     S
N29   C21    1.44048       .     A
N29   N28    1.25422       .     S
N30   C24    1.42929       .     S
N30   O38    1.30158       .     S
N30   O39    1.29988       .     S
N31   C25    1.42927       .     S
N31   O40    1.30141       .     D
N31   O41    1.30004   1_655     D
O32   H10    0.97775       .     D
O32   C17    1.37020       .     S
O33   H11    0.97833       .     S
O33   C16    1.37110       .     D
O34   H12    0.99032       .     D
O34   C19    1.38088       .     A
O35   H13    0.99037       .     A
O35   C18    1.38057       .     D
O36   H14    0.98827       .     S
O36   C22    1.38343       .     D
O37   H15    0.98789       .     S
O37   C23    1.38361       .     A
O38   N30    1.30158       .     A
O39   N30    1.29988       .     S
O40   N31    1.30141       .     A
O41   N31    1.30004   1_455     S
H42   C48    1.08424       .     A
H43   C49    1.08406       .     S
H44   C50    1.08384       .     A
H45   C51    1.08403       .     A
C46   C56    1.47870       .     S
C46   O64    1.30086       .     S
C46   O67    1.30721       .     A
C47   C57    1.46876       .     A
C47   O65    1.30324       .     S
C47   O66    1.29857       .     A
C48   H42    1.08424       .     S
C48   C52    1.38833       .     A
C48   C58    1.38596       .     D
C49   H43    1.08406       .     D
C49   C53    1.38478       .     D
C49   C59    1.39140       .     D
C50   H44    1.08384       .     S
C50   C54    1.38571       .     D
C50   C59    1.39222       .     S
C51   H45    1.08403       .     D
C51   C55    1.38225       .     S
C51   C58    1.38926       .     S
C52   C48    1.38833       .     D
C52   C56    1.43377       .     D
C52   N60    1.43619       .     A
C53   C49    1.38478       .     A
C53   C57    1.41653       .     D
C53   N61    1.42680       .     S
C54   C50    1.38571       .     D
C54   C57    1.41641       .     S
C54   N62    1.42987       .     A
C55   C51    1.38225       .     A
C55   C56    1.42538       .     S
C55   N63    1.43111       .     A
C56   C46    1.47870       .     S
C56   C52    1.43377       .     A
C56   C55    1.42538       .     S
C57   C47    1.46876       .     A
C57   C53    1.41653       .     A
C57   C54    1.41641       .     S
C58   C48    1.38596       .     S
C58   C51    1.38926       .     A
C58   C59    1.45247       .     A
C59   C49    1.39140       .     S
C59   C50    1.39222       .     A
C59   C58    1.45247       .     S
N60   C52    1.43619       .     A
N60   O68    1.30053       .     D
N60   O69    1.30128   1_545     D
N61   C53    1.42680       .     D
N61   O70    1.30118       .     D
N61   O71    1.30197       .     S
N62   C54    1.42987       .     D
N62   O72    1.29896       .     S
N62   O73    1.30123       .     S
N63   C55    1.43111       .     S
N63   O74    1.30183       .     S
N63   O75    1.29874       .     S
O64   Cu1    2.53484   1_554     S
O64   C46    1.30086       .     S
O65   Cu0    2.46135   1_556     S
O65   C47    1.30324       .     S
O66   Cu1    1.77598       .     S
O66   C47    1.29857       .     S
O67   Cu0    1.85787       .     S
O67   C46    1.30721       .     S
O68   N60    1.30053       .     S
O69   N60    1.30128   1_565     S
O70   N61    1.30118       .     S
O71   N61    1.30197       .     S
O72   N62    1.29896       .     S
O73   N62    1.30123       .     S
O74   N63    1.30183       .     S
O75   N63    1.29874       .     S
