data_I
_chemical_name_common  'results/normal_generation/cif/sample_7'
_cell_length_a 12.40374
_cell_length_b 15.85967
_cell_length_c 13.96716
_cell_angle_alpha 67.54837
_cell_angle_beta  68.01729
_cell_angle_gamma 94.86929
_space_group_name_H-M_alt      'P 1'


loop_
_space_group_symop_operation_xyz
  'x, y, z' 

loop_
_atom_site_label
_atom_site_fract_x
_atom_site_fract_y
_atom_site_fract_z
_atom_site_type_symbol
Cu0   0.14316596 0.2135883 0.08470081    Cu
Cu1   0.9236707 0.13451262 0.271249    Cu
H2    0.25592104 0.6856001 0.8998144     H
H3    0.70553267 0.63801646 0.3652529     H
H4    0.11847393 0.89938796 0.9937157     H
H5    0.9287479 0.4440165 0.3474083     H
H6    0.27463448 0.52374417 0.975035     H
H7    0.7186998 0.80303013 0.3247075     H
H8    0.15770905 0.8045643 0.92449105     H
H9    0.798682 0.51852804 0.33356503     H
H10   0.888778 0.02682817 0.21950194     H
H11   0.14572681 0.2907174 0.14402682     H
C12   0.12093722 0.734893 0.99654967     C
C13   0.84939337 0.5913127 0.2753915     C
C14   0.17744088 0.6660979 0.9805409     C
C15   0.7935683 0.65987283 0.29292545     C
C16   0.99618435 0.2942564 0.34536996     C
C17   0.056503758 0.044814706 0.016604979     C
C18   0.053968746 0.39009476 0.24939214     C
C19   0.9840686 0.9462633 0.093015045     C
C20   0.19634543 0.50581044 0.05532547     C
C21   0.80506754 0.823885 0.2506401     C
C22   0.1532683  0.41272 0.14242001     C
C23   0.87049925 0.91885793 0.18927695     C
C24   0.9981771 0.4601427 0.2632735     C
C25   0.029778851 0.8776239 0.06353753     C
C26   0.031122759 0.5496895 0.17207676     C
C27   0.96675026 0.7822506 0.12620866     C
C28   0.13557786 0.5740582 0.06889242     C
C29   0.85389495 0.75532055 0.2226109     C
C30   0.9656414 0.61681235 0.18377173     C
C31   0.01802016 0.7124689 0.1006647     C
O32   0.046102423 0.22616231 0.34512684     O
O33   0.008359146 0.11331344 0.019377006     O
O34   0.88895124 0.27855837 0.42387527     O
O35   0.16551031 0.060917497 0.9406285     O
O36   0.8220564 0.9809851 0.22848986     O
O37   0.20951158 0.34701318 0.118936576     O
H38   0.11181182 0.10923601 0.6770455     H
H39   0.9571695 0.25161275 0.6683498     H
C40   0.91263515 0.09636155 0.45459273     C
C41   0.9627625 0.115521654 0.5230482     C
C42   0.14681247 0.25110528 0.9034244     C
C43   0.09981532 0.23796393 0.8299205     C
C44   0.01827347 0.21217011 0.691598     C
C45   0.051187675 0.14898002 0.65319914     C
C46   0.0039987094 0.13082488 0.58179563     C
C47   0.06207783 0.22720326 0.7667032     C
O48   0.9787012 0.079963095 0.3715384     O
O49   0.8013734 0.09316802 0.4792426     O
O50   0.2564563 0.25021297 0.88194466     O
O51   0.07912854 0.26341784 0.9896487     O
H52   0.5191019 0.40634182 0.046992976     H
H53   0.89373964 0.37131408 0.04359507     H
H54   0.7273809 0.43462133 0.014910824     H
H55   0.16028008 0.97272295 0.30329695     H
H56   0.5329926 0.003389155 0.19859953     H
H57   0.33193123 0.9021026 0.2883843     H
H58   0.32542068 0.3012149 0.12567888     H
C59   0.7144431 0.35880873 0.057438355     C
C60   0.24922416 0.016960202 0.27132627     C
C61   0.34529337 0.9771758 0.26326084     C
C62   0.45985815 0.035662528 0.21671572     C
C63   0.4776602 0.13342969 0.1865222     C
C64   0.37896252 0.17149799 0.18496773     C
C65   0.5897018 0.19563146 0.15167782     C
C66   0.6044921 0.29516035 0.097949825     C
C67   0.50850695 0.33069697 0.087623194     C
C68   0.3964114 0.26964784 0.13362011     C
C69   0.6865607 0.16517039 0.172136     C
C70   0.80800253 0.32407334 0.073510505     C
C71   0.6757591 0.06875882 0.24598466     C
N72   0.7915685 0.22996673 0.130193     N
N73   0.268419 0.112221606 0.22883031     N
N74   0.66635114 0.9910493 0.3052578     N
loop_
_geom_bond_atom_site_label_1
_geom_bond_atom_site_label_2
_geom_bond_distance
_geom_bond_site_symmetry_2
_ccdc_geom_bond_type
Cu0   Cu1    2.71804   1_455     S
Cu0   O32    3.46933       .     S
Cu0   O35    3.66152   1_554     S
Cu0   O50    2.44082   1_554     S
Cu0   O51    1.76428   1_554     A
Cu0   N73    3.05683       .     A
Cu1   Cu0    2.71804   1_655     S
Cu1   O33    3.43353   1_655     S
Cu1   O34    3.62607       .     A
Cu1   O48    1.75127       .     A
Cu1   O49    2.49951       .     A
Cu1   N72    3.06888       .     A
H2    C14    1.08415       .     A
H3    C15    1.08421       .     A
H4    C25    1.07504   1_556     S
H5    C24    1.07860       .     A
H6    C20    1.08430   1_556     A
H7    C21    1.08446       .     A
H8    C12    1.07855       .     A
H9    C13    1.07984       .     A
H10   O36    0.98977   1_545     A
H11   O37    0.98966       .     S
C12   H8     1.07855       .     A
C12   C14    1.38941       .     S
C12   C31    1.41735   1_556     A
C13   H9     1.07984       .     S
C13   C15    1.38781       .     A
C13   C30    1.41582       .     A
C14   H2     1.08415       .     A
C14   C12    1.38941       .     S
C14   C28    1.39246   1_556     S
C15   H3     1.08421       .     A
C15   C13    1.38781       .     S
C15   C29    1.39210       .     S
C16   C18    1.46986   1_655     A
C16   O32    1.29012   1_655     D
C16   O34    1.29493       .     S
C17   C19    1.46929   1_445     S
C17   O33    1.28968       .     D
C17   O35    1.29602   1_554     S
C18   C16    1.46986   1_455     S
C18   C22    1.41982       .     S
C18   C24    1.39472   1_455     S
C19   C17    1.46929   1_665     A
C19   C23    1.41872       .     A
C19   C25    1.39584   1_655     S
C20   H6     1.08430   1_554     S
C20   C22    1.39739       .     A
C20   C28    1.40137       .     A
C21   H7     1.08446       .     A
C21   C23    1.39560       .     A
C21   C29    1.40071       .     A
C22   C18    1.41982       .     A
C22   C20    1.39739       .     S
C22   O37    1.37601       .     A
C23   C19    1.41872       .     A
C23   C21    1.39560       .     A
C23   O36    1.37775       .     A
C24   H5     1.07860       .     A
C24   C18    1.39472   1_655     A
C24   C26    1.39157   1_655     S
C25   H4     1.07505   1_554     A
C25   C19    1.39584   1_455     S
C25   C27    1.39318   1_455     A
C26   C24    1.39157   1_455     S
C26   C28    1.41305       .     A
C26   C30    1.41418   1_455     A
C27   C25    1.39318   1_655     A
C27   C29    1.41530       .     S
C27   C31    1.41694   1_655     S
C28   C14    1.39246   1_554     A
C28   C20    1.40137       .     S
C28   C26    1.41305       .     S
C29   C15    1.39210       .     A
C29   C21    1.40071       .     D
C29   C27    1.41530       .     S
C30   C13    1.41582       .     S
C30   C26    1.41418   1_655     D
C30   C31    1.41211   1_655     S
C31   C12    1.41735   1_554     S
C31   C27    1.41694   1_455     D
C31   C30    1.41211   1_455     S
O32   Cu0    3.46933       .     S
O32   C16    1.29012   1_455     T
O33   Cu1    3.43353   1_455     S
O33   C17    1.28968       .     S
O34   Cu1    3.62607       .     D
O34   C16    1.29493       .     S
O35   Cu0    3.66152   1_556     S
O35   C17    1.29602   1_556     T
O36   H10    0.98977   1_565     S
O36   C23    1.37775       .     D
O37   H11    0.98966       .     S
O37   C22    1.37601       .     D
H38   C45    1.08688       .     S
H39   C44    1.08664   1_655     S
C40   C41    1.42409       .     T
C40   O48    1.28054       .     S
C40   O49    1.28249       .     S
C41   C40    1.42409       .     D
C41   C46    1.19960   1_655     S
C42   C43    1.42411       .     S
C42   O50    1.28095       .     T
C42   O51    1.28212       .     S
C43   C42    1.42411       .     D
C43   C47    1.19951       .     S
C44   H39    1.08664   1_455     S
C44   C45    1.33220       .     S
C44   C47    1.43116       .     A
C45   H38    1.08688       .     A
C45   C44    1.33220       .     A
C45   C46    1.43104       .     S
C46   C41    1.19960   1_455     A
C46   C45    1.43104       .     A
C47   C43    1.19951       .     A
C47   C44    1.43116       .     A
O48   Cu1    1.75127       .     S
O48   C40    1.28054       .     A
O49   Cu1    2.49951       .     A
O49   C40    1.28249       .     S
O50   Cu0    2.44082   1_556     A
O50   C42    1.28095       .     T
O51   Cu0    1.76428   1_556     A
O51   C42    1.28212       .     A
H52   C67    1.08443       .     A
H53   C70    1.07695       .     A
H54   C59    1.08380       .     S
H55   C60    1.08132   1_565     A
H56   C62    1.07463       .     A
H57   C61    1.08262       .     S
H58   C68    1.06951       .     S
C59   H54    1.08380       .     S
C59   C66    1.39692       .     S
C59   C70    1.38192       .     A
C60   H55    1.08132   1_545     A
C60   C61    1.38282   1_545     A
C60   N73    1.35637       .     S
C61   H57    1.08262       .     A
C61   C60    1.38282   1_565     A
C61   C62    1.38794   1_565     A
C62   H56    1.07463       .     A
C62   C61    1.38794   1_545     S
C62   C63    1.41546       .     A
C63   C62    1.41546       .     A
C63   C64    1.41388       .     S
C63   C65    1.42674       .     A
C64   C63    1.41388       .     T
C64   C68    1.39935       .     A
C64   N73    1.36072       .     A
C65   C63    1.42674       .     A
C65   C66    1.42529       .     A
C65   C69    1.41723       .     S
C66   C59    1.39692       .     A
C66   C65    1.42529       .     A
C66   C67    1.39151       .     S
C67   H52    1.08443       .     S
C67   C66    1.39151       .     S
C67   C68    1.38240       .     S
C68   H58    1.06951       .     S
C68   C64    1.39935       .     S
C68   C67    1.38240       .     S
C69   C65    1.41723       .     S
C69   C71    1.44117       .     S
C69   N72    1.35552       .     S
C70   H53    1.07695       .     S
C70   C59    1.38192       .     S
C70   N72    1.34941       .     S
C71   C69    1.44117       .     S
C71   N74    1.15839   1_545     S
N72   Cu1    3.06888       .     S
N72   C69    1.35552       .     S
N72   C70    1.34941       .     S
N73   Cu0    3.05683       .     S
N73   C60    1.35637       .     S
N73   C64    1.36072       .     S
N74   C71    1.15839   1_565     S
