data_I
_chemical_name_common  'results/normal_generation/cif/sample_8'
_cell_length_a 12.27275
_cell_length_b 12.57275
_cell_length_c 16.19801
_cell_angle_alpha 86.09195
_cell_angle_beta  83.38408
_cell_angle_gamma 80.68639
_space_group_name_H-M_alt      'P 1'


loop_
_space_group_symop_operation_xyz
  'x, y, z' 

loop_
_atom_site_label
_atom_site_fract_x
_atom_site_fract_y
_atom_site_fract_z
_atom_site_type_symbol
C0    0.86328244 0.54494345 0.5124961     C
C1    0.7992983 0.65390563 0.5161111     C
C2    0.7475394 0.7456459 0.5178717     C
C3    0.68723446 0.8540102 0.51943624     C
C4    0.6354545 0.94575405 0.52111125     C
C5    0.5714159 0.05468905 0.52454174     C
O6    0.97198004 0.54283035 0.47795856     O
O7    0.80462754 0.46264735 0.5435455     O
O8    0.6299011 0.13695312 0.49302545     O
O9    0.46252117 0.056746244 0.5586163     O
C10   0.10120277 0.4034069 0.55499643     C
C11   0.33406252 0.19307876 0.47648966     C
C12   0.009534433 0.35787833 0.54046685     C
C13   0.42572775 0.23860115 0.49103314     C
C14   0.1271257 0.20484617 0.48403516     C
C15   0.30813658 0.3916492 0.54744816     C
C16   0.22429836 0.2474879 0.49760395     C
C17   0.2109669 0.34899777 0.5338822     C
I18   0.29473487 0.54415363 0.6022759     I
I19   0.14051881 0.052354593 0.4291896     I
N20   0.41250893 0.3352051 0.5255523     N
N21   0.022753263 0.26129025 0.5059311     N
F22   0.078468144 0.50046974 0.58964795     F
F23   0.3567908 0.09600363 0.4418662     F
F24   0.5294539 0.18535553 0.4703323     F
F25   0.9058084 0.411124 0.56116766     F
Zn26  0.8412446 0.2606809 0.48624912    Zn
Zn27  0.5995176 0.3325972 0.54883295    Zn
H28   0.91028315 0.16842675 0.2756452     H
H29   0.5304155 0.37017855 0.7834119     H
H30   0.82093453 0.14231451 0.003962541     H
H31   0.56705934 0.15977246 0.03955838     H
H32   0.5034823 0.2952415 0.9264065     H
H33   0.9054599 0.10547227 0.13748094     H
H34   0.57302797 0.28110778 0.13065468     H
H35   0.8027979 0.065235294 0.88121796     H
C36   0.69715387 0.30305818 0.6651635     C
C37   0.74090505 0.28243217 0.3703017     C
C38   0.68587023 0.26485682 0.75226134     C
C39   0.7431536 0.25926092 0.28300795     C
C40   0.7610342 0.17658813 0.7801368     C
C41   0.64844865 0.2903813 0.2407755     C
C42   0.74322224 0.13192937 0.8602183     C
C43   0.6457674 0.25290248 0.16259928     C
C44   0.6519664 0.17605011 0.91398215     C
C45   0.73706937 0.18327649 0.12577838     C
C46   0.5740669 0.26012665 0.8851916     C
C47   0.8330554 0.15616143 0.16627394     C
C48   0.5908916 0.30441034 0.8045957     C
C49   0.8361914 0.19368877 0.24445541     C
C50   0.64795405 0.15121086 0.0035162359     C
C51   0.74026316 0.15052406 0.04049846     C
O52   0.6074801 0.33554196 0.6300359     O
O53   0.8318011 0.2589352 0.40540498     O
O54   0.7933182 0.28360564 0.62253493     O
O55   0.645963 0.3108715 0.4129059     O
F56   0.8502492 0.13142267 0.7297287     F
F57   0.5582766 0.35657763 0.27480116     F
loop_
_geom_bond_atom_site_label_1
_geom_bond_atom_site_label_2
_geom_bond_distance
_geom_bond_site_symmetry_2
_ccdc_geom_bond_type
C0    C1     1.46594       .     D
C0    O6     1.38270       .     S
C0    O7     1.38868       .     S
C1    C0     1.46594       .     T
C1    C2     1.22388       .     S
C2    C1     1.22388       .     T
C2    C3     1.44175       .     S
C3    C2     1.44175       .     D
C3    C4     1.22397       .     S
C4    C3     1.22397       .     D
C4    C5     1.46578   1_565     S
C5    C4     1.46578   1_545     S
C5    O8     1.38904       .     T
C5    O9     1.38281       .     S
O6    C0     1.38270       .     T
O6    Zn26   4.11146       .     S
O7    C0     1.38868       .     D
O7    Zn27   3.20639       .     S
O8    C5     1.38904       .     S
O8    Zn26   3.22128       .     S
O9    C5     1.38281       .     S
O9    Zn27   4.07817       .     A
C10   C12    1.39160       .     A
C10   C17    1.42375       .     A
C10   F22    1.35248       .     A
C11   C13    1.39159       .     A
C11   C16    1.42375       .     A
C11   F23    1.35241       .     A
C12   C10    1.39160       .     A
C12   N21    1.34978       .     A
C12   F25    1.35555   1_455     A
C13   C11    1.39159       .     S
C13   N20    1.34983       .     A
C13   F24    1.35556       .     S
C14   C16    1.42877       .     S
C14   I19    2.14210       .     S
C14   N21    1.38043       .     S
C15   C17    1.42879       .     S
C15   I18    2.14210       .     A
C15   N20    1.38043       .     A
C16   C11    1.42375       .     A
C16   C14    1.42877       .     A
C16   C17    1.41895       .     A
C17   C10    1.42375       .     A
C17   C15    1.42879       .     A
C17   C16    1.41895       .     A
I18   C15    2.14210       .     A
I19   C14    2.14210       .     A
N20   C13    1.34983       .     S
N20   C15    1.38043       .     A
N20   Zn27   2.36309       .     S
N21   C12    1.34978       .     S
N21   C14    1.38043       .     S
N21   Zn26   2.28767   1_455     S
F22   C10    1.35248       .     D
F23   C11    1.35241       .     S
F24   C13    1.35556       .     S
F25   C12    1.35555   1_655     S
Zn26  O6     4.11146       .     A
Zn26  O8     3.22128       .     A
Zn26  N21    2.28767   1_655     S
Zn26  Zn27   3.03479       .     A
Zn26  O53    1.32983       .     A
Zn26  O54    2.24388       .     S
Zn27  O7     3.20639       .     A
Zn27  O9     4.07817       .     A
Zn27  N20    2.36309       .     S
Zn27  Zn26   3.03479       .     S
Zn27  O52    1.33358       .     S
Zn27  O55    2.23374       .     S
H28   C49    1.08326       .     S
H29   C48    1.08338       .     S
H30   C51    1.08690       .     S
H31   C50    1.08558       .     A
H32   C46    1.08358       .     A
H33   C47    1.08398       .     S
H34   C43    1.08138       .     A
H35   C42    1.08324       .     A
C36   C38    1.45753       .     S
C36   O52    1.29185       .     A
C36   O54    1.29278       .     A
C37   C39    1.45930       .     S
C37   O53    1.29291       .     S
C37   O55    1.29432       .     D
C38   C36    1.45753       .     S
C38   C40    1.40810       .     D
C38   C48    1.40243       .     S
C39   C37    1.45930       .     S
C39   C41    1.40410       .     S
C39   C49    1.40520       .     A
C40   C38    1.40810       .     A
C40   C42    1.38592       .     S
C40   F56    1.35792       .     A
C41   C39    1.40410       .     A
C41   C43    1.38658       .     S
C41   F57    1.35831       .     A
C42   H35    1.08324       .     A
C42   C40    1.38592       .     S
C42   C44    1.40016       .     S
C43   H34    1.08138       .     S
C43   C41    1.38658       .     S
C43   C45    1.40616       .     S
C44   C42    1.40016       .     S
C44   C46    1.39905       .     S
C44   C50    1.45946   1_556     A
C45   C43    1.40616       .     A
C45   C47    1.39706       .     S
C45   C51    1.46257       .     A
C46   H32    1.08358       .     A
C46   C44    1.39905       .     S
C46   C48    1.39031       .     A
C47   H33    1.08398       .     A
C47   C45    1.39706       .     S
C47   C49    1.38794       .     S
C48   H29    1.08338       .     D
C48   C38    1.40243       .     S
C48   C46    1.39031       .     S
C49   H28    1.08326       .     S
C49   C39    1.40520       .     S
C49   C47    1.38794       .     S
C50   H31    1.08558       .     S
C50   C44    1.45946   1_554     S
C50   C51    1.33972       .     S
C51   H30    1.08690       .     S
C51   C45    1.46257       .     S
C51   C50    1.33972       .     S
O52   Zn27   1.33358       .     S
O52   C36    1.29185       .     S
O53   Zn26   1.32983       .     S
O53   C37    1.29291       .     S
O54   Zn26   2.24388       .     S
O54   C36    1.29278       .     S
O55   Zn27   2.23374       .     S
O55   C37    1.29432       .     S
F56   C40    1.35792       .     S
F57   C41    1.35831       .     S
