data_I
_chemical_name_common  'results/normal_generation/cif/sample_1'
_cell_length_a 13.32920
_cell_length_b 14.99513
_cell_length_c 16.04846
_cell_angle_alpha 90.04102
_cell_angle_beta  90.50851
_cell_angle_gamma 90.18327
_space_group_name_H-M_alt      'P 1'


loop_
_space_group_symop_operation_xyz
  'x, y, z' 

loop_
_atom_site_label
_atom_site_fract_x
_atom_site_fract_y
_atom_site_fract_z
_atom_site_type_symbol
H0    0.9724984 0.85990906 0.28051868     H
H1    0.1773597 0.68449914 0.36019942     H
H2    0.025095105 0.55198514 0.3744607     H
H3    0.09747243 0.7330508 0.2018481     H
H4    0.8204516 0.72790766 0.29548806     H
H5    0.90021217 0.6794787 0.45354193     H
C6    0.01347661 0.62182134 0.35367852     C
C7    0.09663463 0.6938605 0.34516227     C
C8    0.07742238 0.8786954 0.505899     C
C9    0.9099755 0.550443 0.13982849     C
C10   0.94459325 0.69108355 0.39634782     C
C11   0.027181745 0.7620425 0.38662663     C
C12   0.90123457 0.71847945 0.31029433     C
C13   0.9704829 0.65024704 0.2686815     C
C14   0.98418415 0.79017097 0.30155337     C
C15   0.053102493 0.721218 0.25905752     C
C16   0.056308508 0.8259082 0.45176414     C
C17   0.8777321 0.50921065 0.06342798     C
C18   0.93753994 0.59231067 0.20001796     C
C19   0.09877992 0.9401877 0.5723461     C
O20   0.7905905 0.5262375 0.03599937     O
O21   0.9422482 0.47026145 0.018378554     O
O22   0.1931318 0.9530075 0.58966315     O
O23   0.041232944 0.009228468 0.57498986     O
H24   0.8537875 0.3549573 0.9305873     H
H25   0.13843656 0.11920476 0.67819923     H
H26   0.10940361 0.41953173 0.737855     H
H27   0.882812 0.054716546 0.8709488     H
C28   0.006494403 0.14374642 0.78702754     C
C29   0.9884741 0.33015555 0.82405514     C
C30   0.93526345 0.17436512 0.84597385     C
C31   0.05943644 0.29959947 0.7648266     C
C32   0.06831789 0.20772596 0.7465772     C
C33   0.9263857 0.26620033 0.8642157     C
C34   0.016100407 0.04779175 0.76844716     C
C35   0.97954303 0.42595354 0.84356374     C
N36   0.972314 0.5017779 0.8590133     N
N37   0.02354598 0.97181517 0.75374365     N
O38   0.85504085 0.28964356 0.9224382     O
O39   0.1393435 0.18424332 0.68810433     O
O40   0.12265241 0.3569011 0.72240037     O
O41   0.8717152 0.11715812 0.88817626     O
H42   0.4639082 0.8170976 0.7503759     H
H43   0.5299458 0.66125494 0.86170155     H
C44   0.17652127 0.6722809 0.8831993     C
C45   0.8173328 0.80607176 0.72887826     C
C46   0.28238454 0.68619907 0.86379373     C
C47   0.7114696 0.79215354 0.74828374     C
C48   0.47858867 0.7073379 0.8314498     C
C49   0.51526535 0.7710145 0.7806276     C
C50   0.6227727 0.78118116 0.7639849     C
C51   0.3710815 0.69717145 0.8480926     C
O52   0.11068706 0.7182834 0.8373322     O
O53   0.883167 0.7600691 0.7747452     O
O54   0.8377851 0.8636424 0.6678451     O
O55   0.15606877 0.61471003 0.94423234     O
Zn56  0.031720996 0.7931734 0.7335699    Zn
Zn57  0.95942956 0.681907 0.8777896    Zn
loop_
_geom_bond_atom_site_label_1
_geom_bond_atom_site_label_2
_geom_bond_distance
_geom_bond_site_symmetry_2
_ccdc_geom_bond_type
H0    C14    1.11013       .     D
H1    C7     1.11001       .     S
H2    C6     1.11017       .     S
H3    C15    1.11059       .     T
H4    C12    1.11012       .     S
H5    C10    1.10993       .     S
C6    H2     1.11017       .     S
C6    C7     1.55224       .     S
C6    C10    1.55141   1_455     S
C6    C13    1.53600   1_455     S
C7    H1     1.11001       .     S
C7    C6     1.55224       .     S
C7    C11    1.53660       .     S
C7    C15    1.55003       .     S
C8    C16    1.20573       .     S
C8    C19    1.43526       .     S
C9    C17    1.43464       .     S
C9    C18    1.20563       .     S
C10   H5     1.10993       .     S
C10   C6     1.55141   1_655     S
C10   C11    1.53758   1_655     S
C10   C12    1.54860       .     S
C11   C7     1.53660       .     S
C11   C10    1.53758   1_455     S
C11   C14    1.53587   1_455     T
C11   C16    1.46616       .     S
C12   H4     1.11012       .     D
C12   C10    1.54860       .     S
C12   C13    1.53649       .     D
C12   C14    1.54699       .     S
C13   C6     1.53600   1_655     S
C13   C12    1.53649       .     T
C13   C15    1.53783   1_655     S
C13   C18    1.46610       .     S
C14   H0     1.11013       .     S
C14   C11    1.53587   1_655     S
C14   C12    1.54699       .     S
C14   C15    1.54733   1_655     S
C15   H3     1.11059       .     S
C15   C7     1.55003       .     S
C15   C13    1.53783   1_455     S
C15   C14    1.54733   1_455     S
C16   C8     1.20573       .     S
C16   C11    1.46616       .     S
C17   C9     1.43464       .     S
C17   O20    1.26534       .     S
C17   O21    1.27160       .     S
C18   C9     1.20563       .     S
C18   C13    1.46610       .     S
C19   C8     1.43526       .     S
C19   O22    1.29923       .     S
C19   O23    1.29134   1_565     S
O20   C17    1.26534       .     T
O20   Zn57   4.12753   1_554     S
O21   C17    1.27160       .     D
O21   Zn57   3.90255   1_554     S
O22   C19    1.29923       .     S
O22   Zn56   3.97115       .     S
O23   C19    1.29134   1_545     S
O23   Zn56   4.12359   1_545     S
H24   O38    0.98820       .     A
H25   O39    0.98804       .     A
H26   O40    0.98804       .     A
H27   O41    0.98805       .     S
C28   C30    1.42312   1_455     A
C28   C32    1.42346       .     S
C28   C34    1.47541       .     A
C29   C31    1.42345   1_655     T
C29   C33    1.42313       .     T
C29   C35    1.47541       .     A
C30   C28    1.42312   1_655     S
C30   C33    1.41320       .     S
C30   O41    1.38508       .     S
C31   C29    1.42345   1_455     S
C31   C32    1.41379       .     S
C31   O40    1.38502       .     S
C32   C28    1.42346       .     S
C32   C31    1.41379       .     S
C32   O39    1.38502       .     A
C33   C29    1.42313       .     A
C33   C30    1.41320       .     A
C33   O38    1.38507       .     S
C34   C28    1.47541       .     A
C34   N37    1.16801   1_545     S
C35   C29    1.47541       .     A
C35   N36    1.16801       .     T
N36   C35    1.16801       .     T
N36   Zn57   2.72374       .     A
N37   C34    1.16801   1_565     S
N37   Zn56   2.70068       .     S
O38   H24    0.98820       .     S
O38   C33    1.38507       .     S
O39   H25    0.98804       .     D
O39   C32    1.38502       .     S
O40   H26    0.98804       .     S
O40   C31    1.38502       .     T
O41   H27    0.98805       .     S
O41   C30    1.38508       .     S
H42   C49    1.08602       .     D
H43   C48    1.08601       .     S
C44   C46    1.46208       .     S
C44   O52    1.33449       .     T
C44   O55    1.33545       .     S
C45   C47    1.46208       .     D
C45   O53    1.33449       .     S
C45   O54    1.33545       .     D
C46   C44    1.46208       .     S
C46   C51    1.22164       .     S
C47   C45    1.46208       .     T
C47   C50    1.22164       .     S
C48   H43    1.08601       .     S
C48   C49    1.34950       .     D
C48   C51    1.46747       .     S
C49   H42    1.08602       .     S
C49   C48    1.34950       .     T
C49   C50    1.46747       .     S
C50   C47    1.22164       .     D
C50   C49    1.46747       .     S
C51   C46    1.22164       .     S
C51   C48    1.46747       .     S
O52   C44    1.33449       .     S
O52   Zn56   2.26298       .     S
O53   C45    1.33449       .     S
O53   Zn57   2.26325       .     S
O54   C45    1.33545       .     S
O54   Zn56   2.98029   1_655     S
O55   C44    1.33545       .     S
O55   Zn57   2.99850   1_455     S
Zn56  O22    3.97115       .     S
Zn56  O23    4.12359   1_565     S
Zn56  N37    2.70068       .     S
Zn56  O52    2.26298       .     S
Zn56  O54    2.98029   1_455     S
Zn56  Zn57   3.01728   1_455     S
Zn57  O20    4.12753   1_556     S
Zn57  O21    3.90255   1_556     S
Zn57  N36    2.72374       .     S
Zn57  O53    2.26325       .     S
Zn57  O55    2.99850   1_655     S
Zn57  Zn56   3.01728   1_655     S
