# generated using pymatgen
data_ZnH4C15I2N3(O3F)2
_symmetry_space_group_name_H-M   'P 1'
_cell_length_a   10.15015000
_cell_length_b   15.19325000
_cell_length_c   16.54358000
_cell_angle_alpha   90.31706000
_cell_angle_beta   90.49851000
_cell_angle_gamma   98.32269000
_symmetry_Int_Tables_number   1
_chemical_formula_structural   ZnH4C15I2N3(O3F)2
_chemical_formula_sum   'Zn2 H8 C30 I4 N6 O12 F4'
_cell_volume   2524.22438653
_cell_formula_units_Z   2
loop_
 _symmetry_equiv_pos_site_id
 _symmetry_equiv_pos_as_xyz
  1  'x, y, z'
loop_
 _atom_site_type_symbol
 _atom_site_label
 _atom_site_symmetry_multiplicity
 _atom_site_fract_x
 _atom_site_fract_y
 _atom_site_fract_z
 _atom_site_occupancy
  _atom_site_charge
  Zn  Zn0  1  0.70873380  0.40464455  0.21978469  1  2.163723
  Zn  Zn1  1  0.42041454  0.35562938  0.26244307  1  2.519732
  H  H2  1  0.18527362  0.27514166  0.94150250  1  0.094578
  H  H3  1  0.94237390  0.48023120  0.53828835  1  0.105997
  H  H4  1  0.13917574  0.30433682  0.25069994  1  -0.246715
  H  H5  1  0.95034740  0.32483372  0.20832036  1  -0.176759
  H  H6  1  0.65115553  0.70954585  0.13630880  1  0.121314
  H  H7  1  0.72662610  0.70510070  0.22743718  1  0.136294
  H  H8  1  0.88095600  0.96423900  0.20573519  1  0.101217
  H  H9  1  0.80342520  0.96733410  0.11492909  1  0.096731
  C  C10  1  0.86400120  0.39705000  0.39941663  1  0.157747
  C  C11  1  0.26368922  0.35832715  0.08036542  1  0.162628
  C  C12  1  0.51917815  0.43204567  0.91330400  1  0.034729
  C  C13  1  0.60852770  0.32326972  0.56646390  1  0.037264
  C  C14  1  0.45989627  0.42426170  0.99087140  1  0.044269
  C  C15  1  0.66778440  0.33108908  0.48890394  1  0.047846
  C  C16  1  0.33672285  0.36740044  0.00165617  1  -0.009012
  C  C17  1  0.79097193  0.38796430  0.47811344  1  0.004030
  C  C18  1  0.27939364  0.31820723  0.93480660  1  -0.038406
  C  C19  1  0.84827030  0.43715462  0.54497665  1  -0.040075
  C  C20  1  0.34074232  0.32282206  0.85897020  1  0.088957
  C  C21  1  0.78689533  0.43252460  0.62081400  1  0.093359
  C  C22  1  0.46288106  0.37870926  0.84810520  1  -0.009445
  C  C23  1  0.66479415  0.37660322  0.63167620  1  -0.009110
  C  C24  1  0.53384703  0.37813312  0.77155220  1  0.040678
  C  C25  1  0.59383696  0.37715510  0.70822930  1  0.041876
  C  C26  1  0.34675652  0.35948306  0.25695843  1  -3.289174
  C  C27  1  0.78395060  0.39496700  0.22935850  1  -2.428523
  C  C28  1  0.16029869  0.44542933  0.25932172  1  -0.229545
  C  C29  1  0.01764825  0.45278720  0.25852450  1  0.067688
  C  C30  1  0.20572420  0.36670050  0.25439397  1  1.485353
  C  C31  1  0.92464280  0.38670400  0.23177767  1  1.051751
  C  C32  1  0.44215915  0.85572946  0.27729258  1  0.365649
  C  C33  1  0.51121694  0.78813160  0.24845552  1  -0.166223
  C  C34  1  0.63573205  0.81346080  0.21078058  1  0.163112
  C  C35  1  0.68936884  0.90462150  0.20293105  1  -0.109837
  C  C36  1  0.61914700  0.97220916  0.23228367  1  0.434947
  C  C37  1  0.49521858  0.94638240  0.26923260  1  -0.041251
  C  C38  1  0.45458275  0.69344610  0.25774595  1  0.201606
  C  C39  1  0.67339260  0.06748736  0.22470250  1  0.134023
  I  I40  1  0.68877120  0.53000677  0.89136850  1  0.000334
  I  I41  1  0.43898267  0.22526318  0.58841133  1  0.036068
  I  I42  1  0.56139300  0.49986420  0.08896029  1  -0.134445
  I  I43  1  0.56623536  0.25554413  0.39079030  1  -0.094032
  N  N44  1  0.27533165  0.27211744  0.79289460  1  -0.019525
  N  N45  1  0.85225240  0.48323646  0.68688360  1  -0.019330
  N  N46  1  0.71678716  0.14286804  0.21853901  1  -0.073852
  N  N47  1  0.41032848  0.61833720  0.26492012  1  -0.037588
  N  N48  1  0.70973000  0.74728400  0.17996357  1  -0.187067
  N  N49  1  0.81592460  0.92718834  0.16473208  1  -0.138682
  O  O50  1  0.99701830  0.41652983  0.40370566  1  -0.092463
  O  O51  1  0.13067813  0.33884797  0.07607877  1  -0.139027
  O  O52  1  0.78963820  0.38655037  0.33231190  1  0.050151
  O  O53  1  0.33805830  0.36882730  0.14747250  1  0.031750
  O  O54  1  0.21059568  0.19308750  0.80521210  1  -0.066429
  O  O55  1  0.26212353  0.31002870  0.72363820  1  -0.069774
  O  O56  1  0.91660390  0.56241757  0.67460716  1  -0.065723
  O  O57  1  0.86571956  0.44531238  0.75609490  1  -0.073861
  O  O58  1  0.38378248  0.28409418  0.24392264  1  -0.053134
  O  O59  1  0.69980717  0.32705477  0.21100649  1  -0.176120
  O  O60  1  0.43152902  0.42692830  0.27517983  1  -0.161029
  O  O61  1  0.74601150  0.46998575  0.24218948  1  -0.316019
  F  F62  1  0.24627623  0.52255625  0.26750848  1  -0.255135
  F  F63  1  0.98285540  0.53143070  0.28439277  1  -0.272559
  F  F64  1  0.42500815  0.00932574  0.29779643  1  -0.487290
  F  F65  1  0.32250348  0.83392140  0.31354246  1  -0.388260
