# generated using pymatgen
data_Zn2H12C42N3Cl9(O5F)2
_symmetry_space_group_name_H-M   'P 1'
_cell_length_a   10.02736000
_cell_length_b   15.01167000
_cell_length_c   17.11449000
_cell_angle_alpha   89.80122000
_cell_angle_beta   90.22360000
_cell_angle_gamma   88.49769000
_symmetry_Int_Tables_number   1
_chemical_formula_structural   Zn2H12C42N3Cl9(O5F)2
_chemical_formula_sum   'Zn2 H12 C42 N3 Cl9 O10 F2'
_cell_volume   2575.27844298
_cell_formula_units_Z   1
loop_
 _symmetry_equiv_pos_site_id
 _symmetry_equiv_pos_as_xyz
  1  'x, y, z'
loop_
 _atom_site_type_symbol
 _atom_site_label
 _atom_site_symmetry_multiplicity
 _atom_site_fract_x
 _atom_site_fract_y
 _atom_site_fract_z
 _atom_site_occupancy
  Zn  Zn0  1  0.22064374  0.58018690  0.59924320  1
  Zn  Zn1  1  0.41761800  0.43977228  0.53760487  1
  H  H2  1  0.06789136  0.42963600  0.69431020  1
  H  H3  1  0.69019500  0.56392480  0.45332792  1
  H  H4  1  0.19069535  0.59362227  0.32937306  1
  H  H5  1  0.28050494  0.34122200  0.81457275  1
  H  H6  1  0.22382110  0.62761390  0.81004006  1
  H  H7  1  0.59397110  0.48657194  0.31759180  1
  H  H8  1  0.43955400  0.56020390  0.04968493  1
  H  H9  1  0.17756964  0.59564350  0.18732709  1
  H  H10  1  0.22790213  0.62961680  0.95303250  1
  H  H11  1  0.66574890  0.91108370  0.49110330  1
  H  H12  1  0.45540360  0.19950439  0.47360435  1
  H  H13  1  0.17468217  0.81777720  0.65776420  1
  C  C14  1  0.96568510  0.44799240  0.69631416  1
  C  C15  1  0.90350210  0.43261390  0.76734126  1
  C  C16  1  0.77076870  0.46059787  0.77350855  1
  C  C17  1  0.69322940  0.45819807  0.70531785  1
  C  C18  1  0.75112265  0.48435527  0.63283074  1
  C  C19  1  0.89534830  0.48234218  0.63079387  1
  C  C20  1  0.88688270  0.53970677  0.50351626  1
  C  C21  1  0.74492675  0.53914124  0.50377053  1
  C  C22  1  0.24837923  0.48157310  0.71612954  1
  C  C23  1  0.39813950  0.53693720  0.41911298  1
  C  C24  1  0.39248356  0.53808090  0.33370993  1
  C  C25  1  0.27586323  0.56939100  0.29616466  1
  C  C26  1  0.26818922  0.57046336  0.21523261  1
  C  C27  1  0.37533072  0.53767735  0.17055297  1
  C  C28  1  0.49465612  0.50948405  0.20766716  1
  C  C29  1  0.50280803  0.50992920  0.28916130  1
  C  C30  1  0.27040356  0.40529844  0.92563620  1
  C  C31  1  0.26784295  0.40443715  0.84434086  1
  C  C32  1  0.23697364  0.56530285  0.84159040  1
  C  C33  1  0.23906131  0.56648844  0.92292510  1
  C  C34  1  0.25530374  0.48674010  0.96526310  1
  C  C35  1  0.36118100  0.53244520  0.08534717  1
  C  C36  1  0.26046357  0.49010324  0.05069023  1
  C  C37  1  0.25120568  0.48417848  0.80176044  1
  C  C38  1  0.62632660  0.74415940  0.54246217  1
  C  C39  1  0.41251940  0.81560760  0.58946740  1
  C  C40  1  0.53553540  0.82316375  0.55104405  1
  C  C41  1  0.57110890  0.90619960  0.52077970  1
  C  C42  1  0.48426974  0.98126376  0.52682130  1
  C  C43  1  0.36078190  0.97314350  0.56610170  1
  C  C44  1  0.32600692  0.89014685  0.59758556  1
  C  C45  1  0.51709470  0.06413052  0.49409485  1
  C  C46  1  0.42791978  0.13675290  0.49969617  1
  C  C47  1  0.30629283  0.12977658  0.53934970  1
  C  C48  1  0.27211080  0.04792485  0.57386050  1
  C  C49  1  0.15048686  0.04084379  0.61613977  1
  C  C50  1  0.11625592  0.95507390  0.64485190  1
  C  C51  1  0.20394768  0.88214050  0.63568735  1
  C  C52  1  0.21875861  0.20378330  0.54441170  1
  C  C53  1  0.10076107  0.19963950  0.58807856  1
  C  C54  1  0.07002139  0.11965352  0.62756720  1
  C  C55  1  0.01076627  0.28003412  0.59240940  1
  N  N56  1  0.96322730  0.51020736  0.56603026  1
  N  N57  1  0.67562020  0.51166606  0.56721455  1
  N  N58  1  0.96897670  0.37767693  0.82674750  1
  Cl  Cl59  1  0.96015250  0.58821590  0.42291966  1
  Cl  Cl60  1  0.69511200  0.46131158  0.86534053  1
  Cl  Cl61  1  0.62591356  0.35228541  0.71134967  1
  Cl  Cl62  1  0.13788177  0.43285394  0.10379057  1
  Cl  Cl63  1  0.63306737  0.46945080  0.15400164  1
  Cl  Cl64  1  0.30000000  0.30368292  0.97540456  1
  Cl  Cl65  1  0.94557610  0.12633166  0.70084060  1
  Cl  Cl66  1  0.96088815  0.92849950  0.68571510  1
  Cl  Cl67  1  0.66850450  0.08054974  0.44458696  1
  O  O68  1  0.08947694  0.34686112  0.81546575  1
  O  O69  1  0.90106326  0.34027222  0.88192980  1
  O  O70  1  0.24764234  0.40560820  0.68209934  1
  O  O71  1  0.50980294  0.53774977  0.45491964  1
  O  O72  1  0.24586351  0.55425200  0.67598367  1
  O  O73  1  0.29015175  0.53982470  0.45791522  1
  O  O74  1  0.57020324  0.66666667  0.53637570  1
  O  O75  1  0.75514364  0.75713670  0.54155940  1
  O  O76  1  0.88022750  0.26553890  0.59117275  1
  O  O77  1  0.06987989  0.35855454  0.59620345  1
  F  F78  1  0.37814215  0.73603260  0.62074950  1
  F  F79  1  0.24882486  0.28052506  0.50658566  1
