# generated using pymatgen
data_ZnH4C15INO4F3
_symmetry_space_group_name_H-M   'P 1'
_cell_length_a   12.27275000
_cell_length_b   12.57275000
_cell_length_c   16.19801000
_cell_angle_alpha   86.09195000
_cell_angle_beta   83.38408000
_cell_angle_gamma   80.68639000
_symmetry_Int_Tables_number   1
_chemical_formula_structural   ZnH4C15INO4F3
_chemical_formula_sum   'Zn2 H8 C30 I2 N2 O8 F6'
_cell_volume   2446.88865827
_cell_formula_units_Z   2
loop_
 _symmetry_equiv_pos_site_id
 _symmetry_equiv_pos_as_xyz
  1  'x, y, z'
loop_
 _atom_site_type_symbol
 _atom_site_label
 _atom_site_symmetry_multiplicity
 _atom_site_fract_x
 _atom_site_fract_y
 _atom_site_fract_z
 _atom_site_occupancy
  _atom_site_charge
  Zn  Zn0  1  0.84124460  0.26068090  0.48624912  1  1.261717
  Zn  Zn1  1  0.59951760  0.33259720  0.54883295  1  1.262269
  H  H2  1  0.91028315  0.16842675  0.27564520  1  0.024052
  H  H3  1  0.53041550  0.37017855  0.78341190  1  0.029384
  H  H4  1  0.82093453  0.14231451  0.00396254  1  0.063405
  H  H5  1  0.56705934  0.15977246  0.03955838  1  0.050337
  H  H6  1  0.50348230  0.29524150  0.92640650  1  0.080056
  H  H7  1  0.90545990  0.10547227  0.13748094  1  0.085101
  H  H8  1  0.57302797  0.28110778  0.13065468  1  0.135910
  H  H9  1  0.80279790  0.06523529  0.88121796  1  0.130597
  C  C10  1  0.86328244  0.54494345  0.51249610  1  0.268974
  C  C11  1  0.79929830  0.65390563  0.51611110  1  -0.059103
  C  C12  1  0.74753940  0.74564590  0.51787170  1  0.064844
  C  C13  1  0.68723446  0.85401020  0.51943624  1  0.000398
  C  C14  1  0.63545450  0.94575405  0.52111125  1  0.011121
  C  C15  1  0.57141590  0.05468905  0.52454174  1  0.260081
  C  C16  1  0.10120277  0.40340690  0.55499643  1  0.297188
  C  C17  1  0.33406252  0.19307876  0.47648966  1  0.233487
  C  C18  1  0.00953443  0.35787833  0.54046685  1  0.045026
  C  C19  1  0.42572775  0.23860115  0.49103314  1  0.263218
  C  C20  1  0.12712570  0.20484617  0.48403516  1  0.134684
  C  C21  1  0.30813658  0.39164920  0.54744816  1  0.129749
  C  C22  1  0.22429836  0.24748790  0.49760395  1  -0.031737
  C  C23  1  0.21096690  0.34899777  0.53388220  1  -0.073166
  C  C24  1  0.69715387  0.30305818  0.66516350  1  0.508408
  C  C25  1  0.74090505  0.28243217  0.37030170  1  0.518269
  C  C26  1  0.68587023  0.26485682  0.75226134  1  -0.274499
  C  C27  1  0.74315360  0.25926092  0.28300795  1  -0.278775
  C  C28  1  0.76103420  0.17658813  0.78013680  1  0.443042
  C  C29  1  0.64844865  0.29038130  0.24077550  1  0.463232
  C  C30  1  0.74322224  0.13192937  0.86021830  1  -0.226901
  C  C31  1  0.64576740  0.25290248  0.16259928  1  -0.247832
  C  C32  1  0.65196640  0.17605011  0.91398215  1  0.109376
  C  C33  1  0.73706937  0.18327649  0.12577838  1  0.161221
  C  C34  1  0.57406690  0.26012665  0.88519160  1  -0.129485
  C  C35  1  0.83305540  0.15616143  0.16627394  1  -0.154745
  C  C36  1  0.59089160  0.30441034  0.80459570  1  0.132747
  C  C37  1  0.83619140  0.19368877  0.24445541  1  0.144473
  C  C38  1  0.64795405  0.15121086  0.00351624  1  0.000851
  C  C39  1  0.74026316  0.15052406  0.04049846  1  -0.098941
  I  I40  1  0.29473487  0.54415363  0.60227590  1  -0.010311
  I  I41  1  0.14051881  0.05235459  0.42918960  1  -0.025884
  N  N42  1  0.41250893  0.33520510  0.52555230  1  -0.220677
  N  N43  1  0.02275326  0.26129025  0.50593110  1  -0.001216
  O  O44  1  0.97198004  0.54283035  0.47795856  1  -0.149515
  O  O45  1  0.80462754  0.46264735  0.54354550  1  -0.148311
  O  O46  1  0.62990110  0.13695312  0.49302545  1  -0.147590
  O  O47  1  0.46252117  0.05674624  0.55861630  1  -0.127200
  O  O48  1  0.60748010  0.33554196  0.63003590  1  -0.769375
  O  O49  1  0.83180110  0.25893520  0.40540498  1  -0.779321
  O  O50  1  0.79331820  0.28360564  0.62253493  1  -0.399955
  O  O51  1  0.64596300  0.31087150  0.41290590  1  -0.401789
  F  F52  1  0.07846814  0.50046974  0.58964795  1  -0.415106
  F  F53  1  0.35679080  0.09600363  0.44186620  1  -0.378038
  F  F54  1  0.52945390  0.18535553  0.47033230  1  -0.448277
  F  F55  1  0.90580840  0.41112400  0.56116766  1  -0.417826
  F  F56  1  0.85024920  0.13142267  0.72972870  1  -0.454879
  F  F57  1  0.55827660  0.35657763  0.27480116  1  -0.442763
