# generated using pymatgen
data_ZnH12C28NCl2O8F
_symmetry_space_group_name_H-M   'P 1'
_cell_length_a   15.00469000
_cell_length_b   17.20061000
_cell_length_c   18.76781000
_cell_angle_alpha   88.64554000
_cell_angle_beta   84.47929000
_cell_angle_gamma   74.06393000
_symmetry_Int_Tables_number   1
_chemical_formula_structural   ZnH12C28NCl2O8F
_chemical_formula_sum   'Zn2 H24 C56 N2 Cl4 O16 F2'
_cell_volume   4636.00372040
_cell_formula_units_Z   2
loop_
 _symmetry_equiv_pos_site_id
 _symmetry_equiv_pos_as_xyz
  1  'x, y, z'
loop_
 _atom_site_type_symbol
 _atom_site_label
 _atom_site_symmetry_multiplicity
 _atom_site_fract_x
 _atom_site_fract_y
 _atom_site_fract_z
 _atom_site_occupancy
  _atom_site_charge
  Zn  Zn0  1  0.86753790  0.56521523  0.21138246  1  1.113256
  Zn  Zn1  1  0.00447822  0.42487338  0.12804249  1  1.131899
  H  H2  1  0.95972383  0.35782754  0.82789576  1  0.076642
  H  H3  1  0.91560810  0.63717294  0.50976247  1  0.075567
  H  H4  1  0.94978900  0.60747630  0.83744390  1  0.075311
  H  H5  1  0.92554780  0.38752747  0.50021380  1  0.074494
  H  H6  1  0.85293690  0.41384730  0.74188805  1  0.056517
  H  H7  1  0.02239502  0.58115304  0.59577010  1  0.051040
  H  H8  1  0.03580034  0.56950647  0.72428244  1  0.050473
  H  H9  1  0.83953166  0.42549390  0.61337580  1  0.053515
  H  H10  1  0.98945170  0.31066138  0.02032197  1  0.044751
  H  H11  1  0.88588000  0.68433910  0.31733630  1  -0.196744
  H  H12  1  0.96067530  0.61937090  0.03418016  1  -0.014587
  H  H13  1  0.91465180  0.37562615  0.30347854  1  0.006023
  H  H14  1  0.00665724  0.02578616  0.11723032  1  0.018451
  H  H15  1  0.86852420  0.96693060  0.22071972  1  0.044903
  H  H16  1  0.90293930  0.85331230  0.15076616  1  -0.002526
  H  H17  1  0.97223926  0.13941550  0.18719345  1  0.059606
  H  H18  1  0.89011740  0.28175950  0.20069386  1  0.019775
  H  H19  1  0.98506380  0.71095747  0.13725615  1  -0.128955
  H  H20  1  0.27127270  0.38941180  0.07895277  1  0.052452
  H  H21  1  0.05312744  0.64670426  0.31372547  1  0.178152
  H  H22  1  0.81796587  0.34232550  0.02333826  1  0.195529
  H  H23  1  0.60095430  0.60239080  0.25684450  1  0.054821
  H  H24  1  0.45082122  0.61915400  0.31550145  1  0.099763
  H  H25  1  0.42124864  0.37305036  0.02008883  1  0.071194
  C  C26  1  0.96698370  0.40375888  0.93310530  1  0.060420
  C  C27  1  0.90834826  0.59124154  0.40455303  1  0.011763
  C  C28  1  0.96400350  0.54288787  0.93810254  1  0.056837
  C  C29  1  0.91132843  0.45211256  0.39955577  1  0.050892
  C  C30  1  0.95948940  0.41038707  0.85865587  1  -0.065478
  C  C31  1  0.91584355  0.58461240  0.47901213  1  -0.048000
  C  C32  1  0.95596880  0.54974365  0.86372805  1  -0.064816
  C  C33  1  0.91936314  0.44525674  0.47393020  1  -0.063505
  C  C34  1  0.95376120  0.48351648  0.82312995  1  0.053753
  C  C35  1  0.92157160  0.51148310  0.51453810  1  0.045519
  C  C36  1  0.89103910  0.44999838  0.71063390  1  -0.025381
  C  C37  1  0.98429376  0.54500127  0.62703410  1  0.016644
  C  C38  1  0.99200785  0.53829914  0.70098660  1  0.013634
  C  C39  1  0.88332410  0.45670125  0.63667154  1  -0.026175
  C  C40  1  0.92982537  0.50431216  0.59366393  1  -0.005465
  C  C41  1  0.94550760  0.49068734  0.74400400  1  -0.006544
  C  C42  1  0.97270936  0.32356998  0.96636980  1  0.111776
  C  C43  1  0.90260740  0.67143667  0.37129056  1  0.143371
  C  C44  1  0.96578810  0.61654496  0.97698330  1  0.103177
  C  C45  1  0.90954393  0.37845555  0.36067492  1  0.073362
  C  C46  1  0.17205691  0.64230484  0.11153520  1  0.283191
  C  C47  1  0.70312417  0.35041225  0.22641489  1  0.291286
  C  C48  1  0.75235300  0.26314140  0.21651591  1  -0.137929
  C  C49  1  0.12282813  0.72957560  0.12143414  1  -0.137687
  C  C50  1  0.84979576  0.23814511  0.20337318  1  0.063270
  C  C51  1  0.02538514  0.75457190  0.13457668  1  0.035902
  C  C52  1  0.89698535  0.15631926  0.19493367  1  -0.072497
  C  C53  1  0.97819585  0.83639777  0.14301643  1  -0.024046
  C  C54  1  0.84797580  0.09718370  0.19844896  1  0.032625
  C  C55  1  0.02720547  0.89553314  0.13950099  1  0.016764
  C  C56  1  0.75024843  0.12166476  0.21173513  1  0.045871
  C  C57  1  0.12493265  0.87105227  0.12621482  1  0.050971
  C  C58  1  0.70295980  0.20382059  0.22042812  1  0.328368
  C  C59  1  0.17222130  0.78889640  0.11752181  1  0.321937
  C  C60  1  0.89809656  0.00995970  0.19058156  1  0.022284
  C  C61  1  0.97708440  0.98275730  0.14736836  1  0.025308
  C  C62  1  0.43381763  0.58348610  0.27456713  1  -0.107026
  C  C63  1  0.74762654  0.54427020  0.16683741  1  0.244203
  C  C64  1  0.12481818  0.44705190  0.16929498  1  0.268311
  C  C65  1  0.28570873  0.42610590  0.12020096  1  -0.023101
  C  C66  1  0.58658826  0.56556670  0.21567525  1  -0.050458
  C  C67  1  0.21596387  0.46107632  0.17311311  1  -0.013795
  C  C68  1  0.65645640  0.53030530  0.16294447  1  0.007614
  C  C69  1  0.23244683  0.51037630  0.22684863  1  -0.004967
  C  C70  1  0.64000770  0.48084170  0.10931138  1  -0.052988
  C  C71  1  0.32203054  0.52389850  0.22682649  1  -0.012840
  C  C72  1  0.43835855  0.40846560  0.06117377  1  -0.053815
  C  C73  1  0.55026840  0.46769574  0.10914082  1  0.049825
  C  C74  1  0.39150620  0.48919162  0.17013182  1  0.034502
  C  C75  1  0.48078534  0.50244240  0.16580479  1  -0.014299
  C  C76  1  0.37212333  0.44078487  0.11751787  1  0.045466
  C  C77  1  0.50014350  0.55092700  0.21835731  1  0.088258
  C  C78  1  0.34641954  0.56979597  0.28043320  1  0.186915
  C  C79  1  0.52572190  0.42220235  0.05531789  1  0.064051
  C  C80  1  0.15443435  0.54720580  0.28068000  1  0.305220
  C  C81  1  0.71828890  0.44303590  0.05602588  1  0.354381
  N  N82  1  0.96934650  0.46997592  0.97254090  1  -0.115001
  N  N83  1  0.90598540  0.52502453  0.36511728  1  -0.177173
  Cl  Cl84  1  0.68426070  0.05084360  0.21536025  1  -0.204507
  Cl  Cl85  1  0.19091010  0.94188267  0.12258280  1  -0.205665
  Cl  Cl86  1  0.27631520  0.60957490  0.35934278  1  -0.290491
  Cl  Cl87  1  0.59537770  0.38354608  0.97590625  1  -0.261202
  O  O88  1  0.95881665  0.26881474  0.93264580  1  -0.173386
  O  O89  1  0.91648490  0.72619820  0.40501657  1  -0.169502
  O  O90  1  0.97273830  0.67731035  0.94449500  1  -0.174898
  O  O91  1  0.90260870  0.31768390  0.39316106  1  -0.165632
  O  O92  1  0.61630430  0.36746418  0.25652430  1  -0.155603
  O  O93  1  0.25887680  0.62525290  0.08142581  1  -0.157225
  O  O94  1  0.12442386  0.58958554  0.13285005  1  -0.200027
  O  O95  1  0.75075730  0.40313137  0.20509987  1  -0.208487
  O  O96  1  0.10660655  0.62889630  0.27505407  1  -0.262540
  O  O97  1  0.74461340  0.48435223  0.00905171  1  -0.205905
  O  O98  1  0.76411813  0.36086354  0.06159234  1  -0.251845
  O  O99  1  0.75264710  0.61530745  0.18303812  1  -0.532090
  O  O100  1  0.11981394  0.37599710  0.15312915  1  -0.510893
  O  O101  1  0.05144397  0.50655160  0.18094310  1  -0.364957
  O  O102  1  0.82101700  0.48475286  0.15522417  1  -0.388519
  O  O103  1  0.13007693  0.50541896  0.32815610  1  -0.190480
  F  F104  1  0.26664722  0.76754050  0.10657875  1  -0.396391
  F  F105  1  0.60853390  0.22517633  0.23137130  1  -0.395755
