# generated using pymatgen
data_Cu2H79C63N2ClO17
_symmetry_space_group_name_H-M   'P 1'
_cell_length_a   9.64459000
_cell_length_b   13.23067000
_cell_length_c   18.19548000
_cell_angle_alpha   94.00819000
_cell_angle_beta   92.27608000
_cell_angle_gamma   92.38447000
_symmetry_Int_Tables_number   1
_chemical_formula_structural   Cu2H79C63N2ClO17
_chemical_formula_sum   'Cu2 H79 C63 N2 Cl1 O17'
_cell_volume   2312.02161351
_cell_formula_units_Z   1
loop_
 _symmetry_equiv_pos_site_id
 _symmetry_equiv_pos_as_xyz
  1  'x, y, z'
loop_
 _atom_site_type_symbol
 _atom_site_label
 _atom_site_symmetry_multiplicity
 _atom_site_fract_x
 _atom_site_fract_y
 _atom_site_fract_z
 _atom_site_occupancy
  Cu  Cu0  1  0.30241734  0.96388740  0.87574970  1
  Cu  Cu1  1  0.58469063  0.96471155  0.88331090  1
  H  H2  1  0.70045274  0.86966370  0.81476367  1
  H  H3  1  0.18589401  0.05127132  0.94674915  1
  H  H4  1  0.70419150  0.07376909  0.00301981  1
  H  H5  1  0.18500984  0.86255693  0.75174330  1
  H  H6  1  0.88393800  0.67327684  0.70986450  1
  H  H7  1  0.04829502  0.71045730  0.75279760  1
  H  H8  1  0.93401640  0.75756140  0.59776300  1
  H  H9  1  0.09602654  0.81126650  0.63693170  1
  H  H10  1  0.18514955  0.63823307  0.64652836  1
  H  H11  1  0.12848651  0.65793160  0.55310300  1
  H  H12  1  0.02007818  0.58262014  0.60894030  1
  H  H13  1  0.97358000  0.25710595  0.05942357  1
  H  H14  1  0.84029055  0.22615480  0.99009920  1
  H  H15  1  0.15651095  0.24474585  0.96448964  1
  H  H16  1  0.02195322  0.21814585  0.89336354  1
  H  H17  1  0.92013800  0.38488830  0.92565984  1
  H  H18  1  0.09999645  0.40051758  0.90345436  1
  H  H19  1  0.05309606  0.41221654  0.99839973  1
  H  H20  1  0.18137345  0.28310835  0.93070900  1
  H  H21  1  0.69489720  0.64611566  0.82848006  1
  H  H22  1  0.34643980  0.18952884  0.72381383  1
  H  H23  1  0.33936837  0.31461936  0.69047490  1
  H  H24  1  0.45645335  0.22449839  0.65163183  1
  H  H25  1  0.58321260  0.35023466  0.73095270  1
  H  H26  1  0.59489040  0.23209836  0.77171874  1
  H  H27  1  0.54072577  0.61606884  0.07117224  1
  H  H28  1  0.53325060  0.73959120  0.03546751  1
  H  H29  1  0.42322110  0.70744560  0.10817766  1
  H  H30  1  0.28302932  0.69453630  0.98942950  1
  H  H31  1  0.29900885  0.57688445  0.03079629  1
  H  H32  1  0.74684170  0.36897302  0.90429590  1
  H  H33  1  0.84536695  0.48971602  0.90739160  1
  H  H34  1  0.89493400  0.29867500  0.80652620  1
  H  H35  1  0.99242140  0.41823483  0.80745520  1
  H  H36  1  0.07000887  0.40341110  0.93846730  1
  H  H37  1  0.11269152  0.29218120  0.88201314  1
  H  H38  1  0.96611995  0.28766190  0.94078470  1
  H  H39  1  0.95115040  0.49888724  0.92053800  1
  H  H40  1  0.03048787  0.40841505  0.86023045  1
  H  H41  1  0.09760261  0.64098865  0.87521840  1
  H  H42  1  0.17363746  0.55184900  0.81073580  1
  H  H43  1  0.93641686  0.50393623  0.75320840  1
  H  H44  1  0.98449100  0.63638425  0.74857664  1
  H  H45  1  0.86328680  0.59825540  0.81565595  1
  H  H46  1  0.66824025  0.76137400  0.24185280  1
  H  H47  1  0.51604550  0.75733530  0.29487404  1
  H  H48  1  0.81673425  0.72518300  0.35026494  1
  H  H49  1  0.66640764  0.72428120  0.40668800  1
  H  H50  1  0.55887390  0.57829030  0.32705620  1
  H  H51  1  0.72683394  0.54958410  0.36550462  1
  H  H52  1  0.70907490  0.57882047  0.27026257  1
  H  H53  1  0.04558183  0.86632574  0.16718842  1
  H  H54  1  0.00962053  0.89398580  0.26142424  1
  H  H55  1  0.25710782  0.77610505  0.20099117  1
  H  H56  1  0.22725421  0.80267906  0.29759187  1
  H  H57  1  0.99890584  0.70577950  0.28187847  1
  H  H58  1  0.14085193  0.62904660  0.25428010  1
  H  H59  1  0.02881420  0.67865800  0.18493806  1
  H  H60  1  0.09716292  0.15562153  0.19346975  1
  H  H61  1  0.05055263  0.24573290  0.26768547  1
  H  H62  1  0.85069560  0.13237286  0.15071309  1
  H  H63  1  0.79997444  0.21757412  0.22566397  1
  H  H64  1  0.94824190  0.35784650  0.17674388  1
  H  H65  1  0.81246200  0.30732596  0.11207301  1
  H  H66  1  0.98918384  0.27139246  0.09968086  1
  H  H67  1  0.98160750  0.07864749  0.50194540  1
  H  H68  1  0.84628665  0.08013415  0.43011642  1
  H  H69  1  0.92621460  0.25657594  0.54610180  1
  H  H70  1  0.78315810  0.25067246  0.47876167  1
  H  H71  1  0.67661715  0.10147870  0.53707170  1
  H  H72  1  0.70513440  0.20962680  0.60286885  1
  H  H73  1  0.82132596  0.10666847  0.60418120  1
  H  H74  1  0.80324440  0.98211690  0.54247680  1
  H  H75  1  0.68639535  0.06913042  0.50688493  1
  H  H76  1  0.89798850  0.95197034  0.41312572  1
  H  H77  1  0.79302960  0.05293620  0.38461780  1
  H  H78  1  0.91432770  0.17270994  0.48124927  1
  H  H79  1  0.03336442  0.11643195  0.41783065  1
  H  H80  1  0.02163076  0.07144916  0.50880450  1
  C  C81  1  0.97956735  0.88038130  0.79563600  1
  C  C82  1  0.90671750  0.04832923  0.96073410  1
  C  C83  1  0.12627327  0.89651040  0.79549134  1
  C  C84  1  0.76106010  0.03285945  0.96173790  1
  C  C85  1  0.12715745  0.00386798  0.90490700  1
  C  C86  1  0.75970757  0.91849256  0.85585820  1
  C  C87  1  0.98065746  0.99403410  0.90680280  1
  C  C88  1  0.90631420  0.93036330  0.85225475  1
  C  C89  1  0.96616240  0.73503053  0.71387047  1
  C  C90  1  0.02157378  0.74500275  0.63685334  1
  C  C91  1  0.09324372  0.64979500  0.60982730  1
  C  C92  1  0.95109826  0.21396875  0.00537193  1
  C  C93  1  0.04647017  0.25738835  0.94864506  1
  C  C94  1  0.02847695  0.37080348  0.94390870  1
  C  C95  1  0.49789608  0.75467740  0.89123976  1
  C  C96  1  0.37950066  0.17349513  0.86958700  1
  C  C97  1  0.60896033  0.49693996  0.83915780  1
  C  C98  1  0.26869944  0.43225706  0.92020655  1
  C  C99  1  0.61214024  0.60126760  0.85087496  1
  C  C100  1  0.26473433  0.32761168  0.90854070  1
  C  C101  1  0.41558212  0.58945040  0.92994140  1
  C  C102  1  0.46365482  0.33854592  0.83095056  1
  C  C103  1  0.39086673  0.48751968  0.90405434  1
  C  C104  1  0.48837554  0.44056067  0.85674510  1
  C  C105  1  0.36768746  0.28115383  0.86858016  1
  C  C106  1  0.51003960  0.64716040  0.89173305  1
  C  C107  1  0.52365560  0.29317620  0.75986070  1
  C  C108  1  0.40912604  0.25289880  0.70335020  1
  C  C109  1  0.35615050  0.63461850  0.00126314  1
  C  C110  1  0.47068927  0.67706730  0.05703557  1
  C  C111  1  0.80704135  0.42200553  0.87118430  1
  C  C112  1  0.93196106  0.36736143  0.84168570  1
  C  C113  1  0.02607739  0.33570763  0.90466230  1
  C  C114  1  0.04908337  0.48264283  0.89282024  1
  C  C115  1  0.07913022  0.56778777  0.84174895  1
  C  C116  1  0.95796850  0.57695280  0.78646386  1
  C  C117  1  0.07976538  0.69502310  0.24057348  1
  C  C118  1  0.01494074  0.17639649  0.23244257  1
  C  C119  1  0.88455266  0.19993389  0.18766972  1
  C  C120  1  0.91085040  0.28975190  0.14116096  1
  C  C121  1  0.92401420  0.12818217  0.46519240  1
  C  C122  1  0.84859500  0.20476425  0.51406960  1
  C  C123  1  0.75727200  0.15200150  0.56775780  1
  C  C124  1  0.74444140  0.00001216  0.49166720  1
  C  C125  1  0.84837556  0.02266359  0.43248600  1
  C  C126  1  0.96128160  0.10075116  0.46219167  1
  C  C127  1  0.47274607  0.96877010  0.22782926  1
  C  C128  1  0.39747210  0.96796507  0.53263617  1
  C  C129  1  0.20463492  0.01789999  0.29028830  1
  C  C130  1  0.09968091  0.07784462  0.31931293  1
  C  C131  1  0.11095995  0.11666918  0.39289477  1
  C  C132  1  0.22702193  0.09568417  0.43743720  1
  C  C133  1  0.32573610  0.02766788  0.41035160  1
  C  C134  1  0.32582068  0.00321150  0.33409816  1
  C  C135  1  0.44546820  0.96167480  0.30445883  1
  C  C136  1  0.55101657  0.92655486  0.34976307  1
  C  C137  1  0.54581660  0.94363620  0.42564228  1
  C  C138  1  0.42627400  0.98479170  0.45615813  1
  C  C139  1  0.63005230  0.77738300  0.29812053  1
  C  C140  1  0.70281255  0.70881563  0.35010272  1
  C  C141  1  0.67218554  0.59694725  0.32652694  1
  C  C142  1  0.09564045  0.88257910  0.22288210  1
  C  C143  1  0.17611879  0.78958830  0.24179134  1
  N  N144  1  0.69012300  0.96846600  0.91053003  1
  N  N145  1  0.19703162  0.95528930  0.85007393  1
  Cl  Cl146  1  0.26151007  0.17391062  0.51912665  1
  O  O147  1  0.90377927  0.82573680  0.73818606  1
  O  O148  1  0.97786450  0.11116934  0.01492858  1
  O  O149  1  0.37524393  0.79000800  0.88844270  1
  O  O150  1  0.50213730  0.13812706  0.87275520  1
  O  O151  1  0.60965820  0.81123763  0.89241314  1
  O  O152  1  0.26772308  0.11689733  0.86878470  1
  O  O153  1  0.72456247  0.45203480  0.81135420  1
  O  O154  1  0.15505959  0.47956687  0.94865350  1
  O  O155  1  0.66483680  0.88068270  0.32005557  1
  O  O156  1  0.49821344  0.96164936  0.57885206  1
  O  O157  1  0.27229807  0.95525850  0.55249650  1
  O  O158  1  0.18562838  0.96976180  0.22037172  1
  O  O159  1  0.98292990  0.09555387  0.27643198  1
  O  O160  1  0.01263876  0.18130112  0.41959238  1
  O  O161  1  0.65563405  0.91425943  0.46934062  1
  O  O162  1  0.48249897  0.88673484  0.18782216  1
  O  O163  1  0.49013472  0.05643392  0.20234466  1
