# generated using pymatgen
data_CuH15C25(NO2)2
_symmetry_space_group_name_H-M   'P 1'
_cell_length_a   17.32021000
_cell_length_b   18.04381000
_cell_length_c   18.28051000
_cell_angle_alpha   74.60684000
_cell_angle_beta   64.69043000
_cell_angle_gamma   68.87546000
_symmetry_Int_Tables_number   1
_chemical_formula_structural   CuH15C25(NO2)2
_chemical_formula_sum   'Cu2 H30 C50 N4 O8'
_cell_volume   4775.41100999
_cell_formula_units_Z   2
loop_
 _symmetry_equiv_pos_site_id
 _symmetry_equiv_pos_as_xyz
  1  'x, y, z'
loop_
 _atom_site_type_symbol
 _atom_site_label
 _atom_site_symmetry_multiplicity
 _atom_site_fract_x
 _atom_site_fract_y
 _atom_site_fract_z
 _atom_site_occupancy
  Cu  Cu0  1  0.93034690  0.03603426  0.96306133  1
  Cu  Cu1  1  0.98688050  0.07450959  0.80555170  1
  H  H2  1  0.83277750  0.80371916  0.96354157  1
  H  H3  1  0.97680473  0.82159567  0.70185626  1
  H  H4  1  0.02282369  0.55456630  0.97160810  1
  H  H5  1  0.04124630  0.54777855  0.79799116  1
  H  H6  1  0.05128646  0.67874247  0.71497700  1
  H  H7  1  0.96498930  0.43564656  0.05404651  1
  H  H8  1  0.13309180  0.29677670  0.80787504  1
  H  H9  1  0.14094472  0.42881500  0.80097860  1
  H  H10  1  0.90561000  0.66142100  0.97593500  1
  H  H11  1  0.96563720  0.29752250  0.06379545  1
  H  H12  1  0.75208080  0.97376300  0.89335840  1
  H  H13  1  0.73742280  0.09025449  0.65804220  1
  H  H14  1  0.47380453  0.01644898  0.96255714  1
  H  H15  1  0.48571460  0.98232930  0.80071485  1
  H  H16  1  0.59918170  0.05550956  0.69684850  1
  H  H17  1  0.33574668  0.98273030  0.07091308  1
  H  H18  1  0.35252520  0.07531321  0.82248956  1
  H  H19  1  0.61827530  0.93673646  0.92969540  1
  H  H20  1  0.19450888  0.09678417  0.86423940  1
  H  H21  1  0.17540525  0.00632970  0.11392152  1
  H  H22  1  0.94294184  0.19691141  0.19456732  1
  H  H23  1  0.97163165  0.91713620  0.57822084  1
  H  H24  1  0.96596230  0.94485570  0.23035534  1
  H  H25  1  0.94861114  0.16919196  0.54243284  1
  H  H26  1  0.96479356  0.95996050  0.09268268  1
  H  H27  1  0.94977564  0.15408350  0.68010940  1
  H  H28  1  0.05314314  0.94658506  0.30232298  1
  H  H29  1  0.86143020  0.16746265  0.47046515  1
  H  H30  1  0.05653608  0.93626773  0.43678278  1
  H  H31  1  0.85803750  0.17777993  0.33600530  1
  C  C32  1  0.86014974  0.90969880  0.82491636  1
  C  C33  1  0.05998087  0.20149772  0.94266940  1
  C  C34  1  0.89913270  0.82335967  0.83186686  1
  C  C35  1  0.04991698  0.28638822  0.93652743  1
  C  C36  1  0.88039870  0.77724737  0.90885420  1
  C  C37  1  0.09756625  0.32524723  0.86263376  1
  C  C38  1  0.92362840  0.69607025  0.91612196  1
  C  C39  1  0.10146689  0.40129608  0.85850110  1
  C  C40  1  0.98670083  0.66046620  0.84637314  1
  C  C41  1  0.05205977  0.44234880  0.92682576  1
  C  C42  1  0.00412786  0.70605440  0.76939480  1
  C  C43  1  0.00412536  0.40418708  0.00103104  1
  C  C44  1  0.96082723  0.78721607  0.76204560  1
  C  C45  1  0.00308073  0.32627174  0.00598168  1
  C  C46  1  0.02747893  0.57435143  0.85063390  1
  C  C47  1  0.03805232  0.52836060  0.91827650  1
  C  C48  1  0.83597470  0.05445333  0.75242410  1
  C  C49  1  0.08070806  0.05845577  0.01486814  1
  C  C50  1  0.75237130  0.03780468  0.77428290  1
  C  C51  1  0.17375855  0.05181174  0.99185520  1
  C  C52  1  0.71897420  0.99301535  0.85012895  1
  C  C53  1  0.22446345  0.07165510  0.90995650  1
  C  C54  1  0.64314960  0.97104234  0.87064993  1
  C  C55  1  0.31502630  0.05813472  0.88587004  1
  C  C56  1  0.59820190  0.99561190  0.81655080  1
  C  C57  1  0.35588950  0.02353455  0.94338430  1
  C  C58  1  0.63360584  0.03656956  0.73904860  1
  C  C59  1  0.30483663  0.00753456  0.02585125  1
  C  C60  1  0.71093160  0.05766228  0.71775150  1
  C  C61  1  0.21379800  0.02137625  0.05017960  1
  C  C62  1  0.50823180  0.98982465  0.84466570  1
  C  C63  1  0.45114988  0.00794361  0.91915920  1
  C  C64  1  0.94591063  0.15021266  0.09617426  1
  C  C65  1  0.96865850  0.96383130  0.67661786  1
  C  C66  1  0.94673760  0.14415534  0.17405885  1
  C  C67  1  0.96783590  0.96989226  0.59872925  1
  C  C68  1  0.95422300  0.07003453  0.22435600  1
  C  C69  1  0.96035050  0.04401311  0.54843210  1
  C  C70  1  0.96103460  0.00313645  0.19376084  1
  C  C71  1  0.95353900  0.11091124  0.57902724  1
  C  C72  1  0.95988340  0.01163507  0.11553328  1
  C  C73  1  0.95469010  0.10241256  0.65725480  1
  C  C74  1  0.01023650  0.99492425  0.33861190  1
  C  C75  1  0.90433270  0.11911981  0.43418002  1
  C  C76  1  0.01221418  0.98907450  0.41598025  1
  C  C77  1  0.90235950  0.12497316  0.35680783  1
  C  C78  1  0.95923030  0.05103593  0.46509530  1
  C  C79  1  0.95534766  0.06301546  0.30768880  1
  C  C80  1  0.93851990  0.22683422  0.04602872  1
  C  C81  1  0.97604364  0.88722295  0.72676160  1
  N  N82  1  0.95237600  0.08431796  0.06816293  1
  N  N83  1  0.96219754  0.02972971  0.70462510  1
  N  N84  1  0.93254970  0.28866556  0.00595974  1
  N  N85  1  0.98202390  0.82538210  0.76682840  1
  O  O86  1  0.88062733  0.95003870  0.75130236  1
  O  O87  1  0.03594041  0.16113295  0.01614976  1
  O  O88  1  0.81295620  0.94282490  0.89265070  1
  O  O89  1  0.10361159  0.16834661  0.87480146  1
  O  O90  1  0.88333774  0.07052425  0.67665446  1
  O  O91  1  0.03261668  0.04449385  0.09066486  1
  O  O92  1  0.86621730  0.04128818  0.80911640  1
  O  O93  1  0.04973708  0.07372990  0.95820296  1
