# generated using pymatgen
data_ZnH27C37N3O5
_symmetry_space_group_name_H-M   'P 1'
_cell_length_a   10.64873000
_cell_length_b   15.64164000
_cell_length_c   16.81372000
_cell_angle_alpha   93.15292000
_cell_angle_beta   90.91751000
_cell_angle_gamma   90.87312000
_symmetry_Int_Tables_number   1
_chemical_formula_structural   ZnH27C37N3O5
_chemical_formula_sum   'Zn2 H54 C74 N6 O10'
_cell_volume   2795.59157014
_cell_formula_units_Z   2
loop_
 _symmetry_equiv_pos_site_id
 _symmetry_equiv_pos_as_xyz
  1  'x, y, z'
loop_
 _atom_site_type_symbol
 _atom_site_label
 _atom_site_symmetry_multiplicity
 _atom_site_fract_x
 _atom_site_fract_y
 _atom_site_fract_z
 _atom_site_occupancy
  Zn  Zn0  1  0.32241002  0.38177780  0.82462126  1
  Zn  Zn1  1  0.46853188  0.30152526  0.69254804  1
  H  H2  1  0.93872080  0.53125640  0.67528015  1
  H  H3  1  0.09999454  0.08563387  0.90836126  1
  H  H4  1  0.78791370  0.31509757  0.55188185  1
  H  H5  1  0.83507556  0.34003133  0.41179287  1
  H  H6  1  0.03662789  0.40907583  0.37744504  1
  H  H7  1  0.19123685  0.45367840  0.48401177  1
  H  H8  1  0.14565146  0.43043464  0.62376535  1
  H  H9  1  0.00312734  0.37047502  0.96643690  1
  H  H10  1  0.95612050  0.34555462  0.10654974  1
  H  H11  1  0.75448070  0.27666238  0.14100850  1
  H  H12  1  0.59961610  0.23225960  0.03454304  1
  H  H13  1  0.82419630  0.59219617  0.73119587  1
  H  H14  1  0.64503800  0.25550097  0.89475006  1
  H  H15  1  0.03793144  0.19521789  0.60956060  1
  H  H16  1  0.01240241  0.05944483  0.52883697  1
  H  H17  1  0.81935840  0.97052610  0.53926940  1
  H  H18  1  0.65243447  0.01698603  0.63237990  1
  H  H19  1  0.67677850  0.15124519  0.71428990  1
  H  H20  1  0.75264010  0.49051508  0.90867704  1
  H  H21  1  0.77804965  0.62623370  0.98949325  1
  H  H22  1  0.97117820  0.71511720  0.97933610  1
  H  H23  1  0.13829923  0.66869070  0.88638170  1
  H  H24  1  0.69117695  0.59988110  0.60956990  1
  H  H25  1  0.11407602  0.53448940  0.80436826  1
  H  H26  1  0.84796820  0.64063305  0.59393346  1
  H  H27  1  0.80201143  0.53511750  0.55342210  1
  H  H28  1  0.96625185  0.09369844  0.78696870  1
  H  H29  1  0.85212160  0.15457028  0.84337676  1
  H  H30  1  0.98922510  0.15002772  0.96492463  1
  H  H31  1  0.94339620  0.04464662  0.92408590  1
  H  H32  1  0.22168519  0.72586524  0.72687894  1
  H  H33  1  0.57124925  0.95656570  0.78684490  1
  H  H34  1  0.20846984  0.97022580  0.67046845  1
  H  H35  1  0.58448450  0.71220280  0.84322566  1
  H  H36  1  0.24303298  0.12459230  0.66062030  1
  H  H37  1  0.54992060  0.55782640  0.85307485  1
  H  H38  1  0.19254693  0.57027906  0.74088980  1
  H  H39  1  0.60038817  0.11216176  0.77283305  1
  H  H40  1  0.27242220  0.40573704  0.52615720  1
  H  H41  1  0.25616965  0.40654984  0.38133890  1
  H  H42  1  0.14221303  0.31956354  0.14800322  1
  H  H43  1  0.61243460  0.25930790  0.50542456  1
  H  H44  1  0.59595490  0.26031014  0.36058390  1
  H  H45  1  0.09436397  0.18425718  0.02777090  1
  H  H46  1  0.89305973  0.15078744  0.95668054  1
  H  H47  1  0.78850794  0.26120290  0.87984693  1
  H  H48  1  0.52678040  0.40583250  0.00810500  1
  H  H49  1  0.88515750  0.40589850  0.87466645  1
  H  H50  1  0.08659861  0.44035906  0.94495237  1
  H  H51  1  0.45241553  0.52397790  0.23291240  1
  H  H52  1  0.63948120  0.58332190  0.30629474  1
  H  H53  1  0.84918153  0.52188800  0.28079683  1
  H  H54  1  0.87173223  0.40044970  0.18126424  1
  H  H55  1  0.68564400  0.33947006  0.10786100  1
  C  C56  1  0.85684290  0.33343193  0.83466655  1
  C  C57  1  0.87289800  0.26981270  0.71347930  1
  C  C58  1  0.91787870  0.41593498  0.80493400  1
  C  C59  1  0.83593106  0.40690926  0.72856410  1
  C  C60  1  0.95484567  0.27883840  0.78984930  1
  C  C61  1  0.77473754  0.32499410  0.75809723  1
  C  C62  1  0.01604772  0.36075822  0.76032380  1
  C  C63  1  0.83648336  0.54400796  0.68101330  1
  C  C64  1  0.79143060  0.58225640  0.60464215  1
  C  C65  1  0.95431070  0.14172508  0.83734393  1
  C  C66  1  0.99973553  0.10313776  0.91350780  1
  C  C67  1  0.96519744  0.36775282  0.59838960  1
  C  C68  1  0.87694186  0.34447095  0.53770160  1
  C  C69  1  0.90310090  0.35875595  0.45827550  1
  C  C70  1  0.01669538  0.39758453  0.43888852  1
  C  C71  1  0.10395884  0.42252693  0.49895307  1
  C  C72  1  0.07827282  0.40811986  0.57842240  1
  C  C73  1  0.82566696  0.31800964  0.92003244  1
  C  C74  1  0.91406000  0.34118798  0.98067230  1
  C  C75  1  0.88798840  0.32690996  0.06011105  1
  C  C76  1  0.77433467  0.28817922  0.07955503  1
  C  C77  1  0.68693330  0.26333260  0.01954257  1
  C  C78  1  0.71252220  0.27774020  0.94005597  1
  C  C79  1  0.85635597  0.18606158  0.66503920  1
  C  C80  1  0.95243037  0.15759374  0.61417943  1
  C  C81  1  0.93864715  0.08045013  0.56858826  1
  C  C82  1  0.82994320  0.03027194  0.57450545  1
  C  C83  1  0.73564476  0.05665464  0.62675756  1
  C  C84  1  0.74904853  0.13381350  0.67236704  1
  C  C85  1  0.93434846  0.49968937  0.85339480  1
  C  C86  1  0.83816737  0.52813350  0.90416530  1
  C  C87  1  0.85189410  0.60524270  0.94981600  1
  C  C88  1  0.96064840  0.65540230  0.94405144  1
  C  C89  1  0.05505478  0.62903880  0.89188150  1
  C  C90  1  0.04169738  0.55191404  0.84621197  1
  C  C91  1  0.14909613  0.36757650  0.76675610  1
  C  C92  1  0.64169765  0.31816483  0.75168043  1
  C  C93  1  0.93394360  0.35231600  0.68374753  1
  C  C94  1  0.51543460  0.08029270  0.74983950  1
  C  C95  1  0.27750087  0.60213770  0.76387250  1
  C  C96  1  0.49812138  0.99165976  0.75811530  1
  C  C97  1  0.29481298  0.69077116  0.75560850  1
  C  C98  1  0.38570338  0.95022300  0.72967550  1
  C  C99  1  0.40724012  0.73219670  0.78403455  1
  C  C100  1  0.29588312  0.99948984  0.69272983  1
  C  C101  1  0.49706244  0.68293910  0.82096720  1
  C  C102  1  0.31618330  0.08729708  0.68652330  1
  C  C103  1  0.47675340  0.59513240  0.82717663  1
  C  C104  1  0.45059547  0.32696825  0.61394143  1
  C  C105  1  0.22566254  0.33505395  0.03364483  1
  C  C106  1  0.33423024  0.37401456  0.40765348  1
  C  C107  1  0.34081644  0.36083972  0.90644675  1
  C  C108  1  0.34376967  0.37411195  0.49059730  1
  C  C109  1  0.42486694  0.33193842  0.35990006  1
  C  C110  1  0.44330934  0.33226785  0.52691007  1
  C  C111  1  0.53427000  0.29178515  0.47908124  1
  C  C112  1  0.52498895  0.29195875  0.39647636  1
  C  C113  1  0.10564794  0.31441364  0.99073124  1
  C  C114  1  0.04950802  0.23294726  0.99436620  1
  C  C115  1  0.93564220  0.21383141  0.95417440  1
  C  C116  1  0.87663030  0.27606422  0.91087604  1
  C  C117  1  0.93119380  0.35762236  0.90787000  1
  C  C118  1  0.04530067  0.37688795  0.94762640  1
  C  C119  1  0.55508393  0.42685980  0.16533884  1
  C  C120  1  0.54336226  0.49624470  0.22139882  1
  C  C121  1  0.64916015  0.53015480  0.26295987  1
  C  C122  1  0.76739140  0.49556625  0.24855694  1
  C  C123  1  0.78008700  0.42712240  0.19241665  1
  C  C124  1  0.67452776  0.39292088  0.15077725  1
  C  C125  1  0.33626830  0.35813050  0.99378330  1
  C  C126  1  0.44321215  0.38553318  0.03841576  1
  C  C127  1  0.44285274  0.39011246  0.12166867  1
  C  C128  1  0.33373708  0.36328351  0.16131705  1
  C  C129  1  0.22644213  0.33725655  0.11701884  1
  N  N130  1  0.42442107  0.12654757  0.71472700  1
  N  N131  1  0.36852327  0.55588220  0.79898190  1
  N  N132  1  0.35741365  0.86100550  0.73706280  1
  N  N133  1  0.43552992  0.82141430  0.77664727  1
  N  N134  1  0.32814708  0.36330068  0.24546790  1
  N  N135  1  0.42186788  0.32979846  0.27542216  1
  O  O136  1  0.02817535  0.21520747  0.82398070  1
  O  O137  1  0.21151435  0.31853026  0.72536045  1
  O  O138  1  0.57927920  0.36721095  0.79307610  1
  O  O139  1  0.59468570  0.30047110  0.68625050  1
  O  O140  1  0.19610786  0.38527012  0.83218600  1
  O  O141  1  0.76259786  0.47054540  0.69445765  1
  O  O142  1  0.53064734  0.27798063  0.64397330  1
  O  O143  1  0.40720550  0.41878130  0.87600744  1
  O  O144  1  0.37464797  0.36761710  0.65971710  1
  O  O145  1  0.27380565  0.30946740  0.86117303  1
