# generated using pymatgen
data_Cu2H17C41S2N5(O11F)2
_symmetry_space_group_name_H-M   'P 1'
_cell_length_a   11.12491000
_cell_length_b   14.02604000
_cell_length_c   16.54324000
_cell_angle_alpha   90.79728000
_cell_angle_beta   90.50558000
_cell_angle_gamma   90.75354000
_symmetry_Int_Tables_number   1
_chemical_formula_structural   Cu2H17C41S2N5(O11F)2
_chemical_formula_sum   'Cu2 H17 C41 S2 N5 O22 F2'
_cell_volume   2580.80337384
_cell_formula_units_Z   1
loop_
 _symmetry_equiv_pos_site_id
 _symmetry_equiv_pos_as_xyz
  1  'x, y, z'
loop_
 _atom_site_type_symbol
 _atom_site_label
 _atom_site_symmetry_multiplicity
 _atom_site_fract_x
 _atom_site_fract_y
 _atom_site_fract_z
 _atom_site_occupancy
  Cu  Cu0  1  0.44607472  0.97944057  0.89779127  1
  Cu  Cu1  1  0.25417522  0.85832465  0.89110935  1
  H  H2  1  0.67097710  0.73350210  0.04906786  1
  H  H3  1  0.86997750  0.64438250  0.96331020  1
  H  H4  1  0.46000037  0.53396530  0.67156980  1
  H  H5  1  0.19702889  0.29461265  0.10004854  1
  H  H6  1  0.64223850  0.26025176  0.63743890  1
  H  H7  1  0.21992340  0.57274070  0.78715720  1
  H  H8  1  0.02794040  0.56483440  0.13464618  1
  H  H9  1  0.58298266  0.13175840  0.70893407  1
  H  H10  1  0.34185496  0.17161131  0.89780150  1
  H  H11  1  0.99555370  0.93141850  0.46780008  1
  H  H12  1  0.99625420  0.00875652  0.27135837  1
  H  H13  1  0.45016295  0.79755310  0.55008656  1
  H  H14  1  0.53961086  0.97500694  0.44731697  1
  H  H15  1  0.18088202  0.00769281  0.21900035  1
  H  H16  1  0.60842144  0.99799140  0.19627947  1
  H  H17  1  0.08821979  0.92141910  0.66575040  1
  H  H18  1  0.67898570  0.00348723  0.33762965  1
  C  C19  1  0.95407080  0.88122510  0.85122055  1
  C  C20  1  0.71995765  0.96248930  0.89826870  1
  C  C21  1  0.78116417  0.89232390  0.93358600  1
  C  C22  1  0.85703504  0.83635134  0.88218737  1
  C  C23  1  0.05502021  0.83081350  0.81974417  1
  C  C24  1  0.62017910  0.00602365  0.93633130  1
  C  C25  1  0.53238505  0.27867560  0.72728660  1
  C  C26  1  0.53313700  0.18150553  0.74568474  1
  C  C27  1  0.40109187  0.20510162  0.85507995  1
  C  C28  1  0.40700504  0.30448872  0.84607090  1
  C  C29  1  0.46154866  0.34026587  0.77516186  1
  C  C30  1  0.35328344  0.36800760  0.90231097  1
  C  C31  1  0.33216830  0.46315944  0.87852660  1
  C  C32  1  0.35658816  0.48886445  0.79726434  1
  C  C33  1  0.43511477  0.43348510  0.75050210  1
  C  C34  1  0.32192272  0.34056303  0.98186340  1
  C  C35  1  0.24436802  0.39751460  0.02797890  1
  C  C36  1  0.22513208  0.49269020  0.00493181  1
  C  C37  1  0.28438893  0.52873486  0.93598294  1
  C  C38  1  0.15455840  0.55430794  0.05240679  1
  C  C39  1  0.16094008  0.65299255  0.03770614  1
  C  C40  1  0.29895934  0.62913060  0.93047583  1
  C  C41  1  0.39332664  0.67165390  0.88296730  1
  C  C42  1  0.09855769  0.71867204  0.08981717  1
  C  C43  1  0.38304120  0.26376978  0.02249193  1
  C  C44  1  0.38175556  0.95933306  0.14464055  1
  C  C45  1  0.09104832  0.92090464  0.47673630  1
  C  C46  1  0.25632220  0.88072160  0.56565360  1
  C  C47  1  0.54373870  0.99132930  0.24451816  1
  C  C48  1  0.58447340  0.99187990  0.32416990  1
  C  C49  1  0.50430360  0.97288203  0.38626802  1
  C  C50  1  0.38070863  0.95628476  0.36934513  1
  C  C51  1  0.33780438  0.97309920  0.29078585  1
  C  C52  1  0.29764300  0.92718595  0.42849517  1
  C  C53  1  0.17251363  0.93902000  0.41447166  1
  C  C54  1  0.13093790  0.97046930  0.33919802  1
  C  C55  1  0.21368536  0.98435223  0.27718610  1
  C  C56  1  0.31106105  0.88191740  0.64583343  1
  C  C57  1  0.33513740  0.88356800  0.50006396  1
  C  C58  1  0.13223423  0.89893960  0.55378336  1
  C  C59  1  0.42074478  0.97928160  0.22745115  1
  S  S60  1  0.77589643  0.86395460  0.03813052  1
  S  S61  1  0.80464580  0.71839184  0.85877293  1
  N  N62  1  0.46450830  0.14751020  0.80627310  1
  N  N63  1  0.43194910  0.20264675  0.05494630  1
  N  N64  1  0.23483992  0.68754953  0.97920980  1
  N  N65  1  0.46925950  0.70523584  0.84483594  1
  N  N66  1  0.04820064  0.77020920  0.13258720  1
  O  O67  1  0.55775000  0.94251686  0.97212340  1
  O  O68  1  0.88265043  0.80508280  0.06005323  1
  O  O69  1  0.77809200  0.95395350  0.08851886  1
  O  O70  1  0.65021724  0.80110514  0.05884552  1
  O  O71  1  0.67747290  0.70577570  0.88653547  1
  O  O72  1  0.80868220  0.70089626  0.76899560  1
  O  O73  1  0.88917184  0.63719900  0.90528380  1
  O  O74  1  0.04217946  0.74251884  0.81109010  1
  O  O75  1  0.15749109  0.87329733  0.82122105  1
  O  O76  1  0.63743270  0.08885288  0.97254770  1
  O  O77  1  0.47474858  0.46477380  0.67630200  1
  O  O78  1  0.19825864  0.36526206  0.10027230  1
  O  O79  1  0.59774610  0.31331638  0.66312635  1
  O  O80  1  0.29713237  0.56193900  0.75923973  1
  O  O81  1  0.08239064  0.51631700  0.11217928  1
  O  O82  1  0.43962920  0.00063992  0.08634966  1
  O  O83  1  0.44738440  0.84222220  0.50422126  1
  O  O84  1  0.04882633  0.89932436  0.61504436  1
  O  O85  1  0.29344610  0.89771086  0.13284431  1
  O  O86  1  0.40497464  0.93802834  0.65694000  1
  O  O87  1  0.25879157  0.83509934  0.70343470  1
  O  O88  1  0.00965349  0.98598033  0.32717490  1
  F  F89  1  0.73207000  0.97870624  0.81815750  1
  F  F90  1  0.97294610  0.97523737  0.86743283  1
