# generated using pymatgen
data_ZnH12C25N3O8
_symmetry_space_group_name_H-M   'P 1'
_cell_length_a   12.42873000
_cell_length_b   12.64538000
_cell_length_c   18.75982000
_cell_angle_alpha   100.73911000
_cell_angle_beta   99.10883000
_cell_angle_gamma   78.81570000
_symmetry_Int_Tables_number   1
_chemical_formula_structural   ZnH12C25N3O8
_chemical_formula_sum   'Zn2 H24 C50 N6 O16'
_cell_volume   2818.83240971
_cell_formula_units_Z   2
loop_
 _symmetry_equiv_pos_site_id
 _symmetry_equiv_pos_as_xyz
  1  'x, y, z'
loop_
 _atom_site_type_symbol
 _atom_site_label
 _atom_site_symmetry_multiplicity
 _atom_site_fract_x
 _atom_site_fract_y
 _atom_site_fract_z
 _atom_site_occupancy
  _atom_site_charge
  Zn  Zn0  1  0.47781336  0.24737461  0.04787156  1  1.577153
  Zn  Zn1  1  0.23108041  0.26025012  0.00008965  1  1.399495
  H  H2  1  0.49144498  0.22045979  0.82732964  1  0.030902
  H  H3  1  0.23316270  0.23831479  0.21472614  1  0.046296
  H  H4  1  0.51820920  0.17256914  0.69958234  1  0.057199
  H  H5  1  0.21830416  0.19170725  0.33170867  1  0.064473
  H  H6  1  0.16504680  0.18830523  0.63960060  1  0.062414
  H  H7  1  0.57286906  0.16560683  0.38907117  1  0.065266
  H  H8  1  0.13839616  0.23597306  0.76782420  1  0.053214
  H  H9  1  0.58767724  0.21191387  0.27144570  1  0.054238
  H  H10  1  0.70764476  0.54551120  0.98921710  1  0.119873
  H  H11  1  0.69986165  0.15759753  0.98898680  1  -0.015816
  H  H12  1  0.07031119  0.41167164  0.05696998  1  0.120937
  H  H13  1  0.42862350  0.47416008  0.93001443  1  0.044582
  H  H14  1  0.27103174  0.98803586  0.06657804  1  0.062172
  H  H15  1  0.74581790  0.16870615  0.11632043  1  0.038530
  H  H16  1  0.08183086  0.88006020  0.10108783  1  0.072173
  H  H17  1  0.90099406  0.52115650  0.02497384  1  0.063625
  H  H18  1  0.52858925  0.78234446  0.02940301  1  0.067297
  H  H19  1  0.46425268  0.72283610  0.12161942  1  0.092355
  H  H20  1  0.20657304  0.66583604  0.94460016  1  0.035296
  H  H21  1  0.17971635  0.84351826  0.95819795  1  0.060131
  H  H22  1  0.12314461  0.49847195  0.92275494  1  0.058875
  H  H23  1  0.09167746  0.00070643  0.89937884  1  0.024814
  H  H24  1  0.59582440  0.01381207  0.95809394  1  0.035656
  H  H25  1  0.45489925  0.48031390  0.20702583  1  0.058361
  C  C26  1  0.29949660  0.19530599  0.31915920  1  -0.049071
  C  C27  1  0.34379170  0.17594683  0.65980434  1  0.010856
  C  C28  1  0.39453660  0.17426778  0.36916837  1  0.039766
  C  C29  1  0.23693824  0.19451694  0.68013686  1  -0.042878
  C  C30  1  0.49826830  0.18080223  0.35127625  1  -0.029395
  C  C31  1  0.22150207  0.22299738  0.75337243  1  0.016864
  C  C32  1  0.50664300  0.20853658  0.28440472  1  0.015795
  C  C33  1  0.31274348  0.23292989  0.80713224  1  -0.076900
  C  C34  1  0.41144650  0.22974361  0.23459001  1  -0.085543
  C  C35  1  0.38393995  0.15580636  0.44210717  1  0.111960
  C  C36  1  0.35926783  0.15665000  0.58259314  1  0.109246
  C  C37  1  0.29834260  0.25190187  0.88435050  1  0.277018
  C  C38  1  0.42079560  0.24796680  0.16153969  1  0.332468
  C  C39  1  0.41948432  0.21435349  0.78680336  1  0.008869
  C  C40  1  0.30785057  0.22318470  0.25248957  1  0.022721
  C  C41  1  0.43493515  0.18571682  0.71371210  1  -0.045123
  C  C42  1  0.70609030  0.46076680  0.99167950  1  -0.823842
  C  C43  1  0.10862446  0.09225451  0.08449417  1  0.062598
  C  C44  1  0.00971389  0.04903689  0.07651810  1  0.019265
  C  C45  1  0.90772380  0.11981192  0.07001744  1  0.001644
  C  C46  1  0.90455930  0.22093439  0.04754350  1  0.007595
  C  C47  1  0.00647032  0.26277483  0.05712633  1  0.094806
  C  C48  1  0.80330970  0.28466836  0.01924539  1  0.005363
  C  C49  1  0.80345240  0.39403546  0.01363714  1  0.021869
  C  C50  1  0.90096140  0.43684444  0.02941964  1  -0.042894
  C  C51  1  0.00049031  0.37175090  0.04835904  1  -0.107936
  C  C52  1  0.70267564  0.24336067  0.99337626  1  0.228771
  C  C53  1  0.60701054  0.41983460  0.97313094  1  2.171429
  C  C54  1  0.50546634  0.49886653  0.95443535  1  -1.161940
  C  C55  1  0.21304345  0.02113632  0.10532185  1  -0.006839
  C  C56  1  0.81334580  0.10209635  0.10477661  1  0.110246
  C  C57  1  0.01367402  0.92936830  0.07228807  1  -0.021981
  C  C58  1  0.32952094  0.50389960  0.07101442  1  -0.212419
  C  C59  1  0.37175927  0.00303710  0.96096253  1  -0.027930
  C  C60  1  0.24945493  0.54672223  0.01564206  1  0.106030
  C  C61  1  0.27077160  0.96175224  0.94167120  1  0.007835
  C  C62  1  0.26099625  0.64142300  0.99190670  1  0.027766
  C  C63  1  0.26043080  0.86724940  0.96651495  1  -0.027535
  C  C64  1  0.34081182  0.70371200  0.02788223  1  0.180862
  C  C65  1  0.35202414  0.80441490  0.00162810  1  0.041361
  C  C66  1  0.40787575  0.67095270  0.09017332  1  -0.136494
  C  C67  1  0.45597774  0.83505360  0.00813989  1  -0.008771
  C  C68  1  0.40304017  0.57211930  0.11255819  1  0.111073
  C  C69  1  0.46762410  0.93255870  0.98718745  1  -0.097459
  C  C70  1  0.35124070  0.38400772  0.07279663  1  0.604114
  C  C71  1  0.37079310  0.12306726  0.97101605  1  0.135775
  C  C72  1  0.15129004  0.49751630  0.98048735  1  -0.098177
  C  C73  1  0.17440452  0.01225293  0.89459440  1  0.113736
  C  C74  1  0.58068436  0.95717500  0.99078155  1  -0.109933
  C  C75  1  0.47199002  0.54378070  0.18085705  1  0.070236
  N  N76  1  0.27057838  0.15840928  0.53026336  1  -0.077090
  N  N77  1  0.47322890  0.14942756  0.49392337  1  -0.075473
  N  N78  1  0.28272435  0.15798834  0.46123020  1  -0.075964
  N  N79  1  0.46108094  0.14982793  0.56296310  1  -0.079003
  N  N80  1  0.60676850  0.31057605  0.97278530  1  -0.218399
  N  N81  1  0.10688209  0.19929901  0.07752074  1  -0.177531
  O  O82  1  0.38550340  0.25157127  0.93235403  1  -0.267816
  O  O83  1  0.33294424  0.25329363  0.11410588  1  -0.311047
  O  O84  1  0.20072499  0.25722322  0.90239140  1  -0.181400
  O  O85  1  0.51772280  0.24764174  0.14406858  1  -0.288103
  O  O86  1  0.50635284  0.59706200  0.96654606  1  0.122297
  O  O87  1  0.23051930  0.99183095  0.16509260  1  -0.145907
  O  O88  1  0.81193850  0.01624719  0.12517746  1  -0.144313
  O  O89  1  0.94242440  0.88349986  0.03329433  1  -0.096969
  O  O90  1  0.28043258  0.32751152  0.03662692  1  -0.833463
  O  O91  1  0.27993014  0.18701243  0.95620906  1  -0.147312
  O  O92  1  0.44691744  0.33704582  0.09809146  1  -0.691427
  O  O93  1  0.45481540  0.16147399  0.00633970  1  -1.869349
  O  O94  1  0.09641649  0.46281760  0.01665442  1  -0.240098
  O  O95  1  0.18681146  0.06116462  0.84696615  1  -0.166125
  O  O96  1  0.65864664  0.91333485  0.02942903  1  -0.078412
  O  O97  1  0.54743680  0.59257880  0.20968519  1  -0.161485
