data_I
_chemical_name_common  'nh3_guided_samples/cif/sample_2'
_cell_length_a  9.38748
_cell_length_b  9.82095
_cell_length_c 14.82406
_cell_angle_alpha 93.82568
_cell_angle_beta  107.36287
_cell_angle_gamma 92.96561
_space_group_name_H-M_alt      'P 1'


loop_
_space_group_symop_operation_xyz
  'x, y, z' 

loop_
_atom_site_label
_atom_site_fract_x
_atom_site_fract_y
_atom_site_fract_z
_atom_site_type_symbol
Cu0   0.41705647 0.81933427 0.51355857    Cu
Cu1   0.5987387 0.054037213 0.5482039    Cu
C2    0.7104052 0.010919571 0.7701719     C
C3    0.6422325 0.9851508 0.84809947     C
C4    0.5897893 0.9661791 0.914752     C
C5    0.52971876 0.9449296 0.9949115     C
C6    0.47952673 0.9273077 0.06269105     C
C7    0.4194562 0.90605825 0.14285062     C
C8    0.36705047 0.88703734 0.20950505     C
C9    0.29891038 0.8612148 0.28743133     C
O10   0.6538751 0.9447357 0.6856059     O
O11   0.82502025 0.101172924 0.7892717     O
O12   0.18435894 0.7708842 0.2683436     O
O13   0.35542002 0.9274096 0.37199932     O
H14   0.13044274 0.5122578 0.4110165     H
H15   0.87981856 0.3654334 0.6453371     H
C16   0.37746128 0.5043796 0.4781759     C
C17   0.6328174 0.37331235 0.57816976     C
C18   0.5087633 0.585675 0.5324418     C
C19   0.50149673 0.2920161 0.52388996     C
C20   0.63559145 0.51913667 0.58205664     C
C21   0.37466928 0.3585543 0.47428614     C
C22   0.5131302 0.73735356 0.5417696     C
C23   0.4971305 0.14033759 0.51457304     C
C24   0.23870255 0.56885415 0.4275615     C
C25   0.7715582 0.30883694 0.62878126     C
N26   0.49358106 0.02058029 0.5075964     N
N27   0.51667976 0.85711086 0.5487464     N
N28   0.2431168 0.27709663 0.4170277     N
N29   0.7671618 0.6005953 0.63931805     N
O30   0.17922735 0.18471922 0.45416626     O
O31   0.19142587 0.29035303 0.3265387     O
O32   0.8310512 0.69297254 0.60217947     O
O33   0.8188182 0.58735245 0.7298126     O
O34   0.24295473 0.6842636 0.40206403     O
O35   0.7673219 0.19342814 0.6542489     O
C36   0.2252417 0.9110757 0.5674676     C
C37   0.07145807 0.9305497 0.5403285     C
C38   0.9413899 0.9468984 0.5173574     C
C39   0.7876027 0.96639335 0.49029693     C
O40   0.26722512 0.7901453 0.5769382     O
O41   0.74562716 0.08734429 0.4809646     O
O42   0.69375414 0.8627511 0.47603142     O
O43   0.3190982 0.01473856 0.5818714     O
loop_
_geom_bond_atom_site_label_1
_geom_bond_atom_site_label_2
_geom_bond_distance
_geom_bond_site_symmetry_2
_ccdc_geom_bond_type
Cu0   Cu1    2.71995   1_565     S
Cu0   O10    2.97947       .     S
Cu0   O12    3.62413       .     D
Cu0   N27    0.96513       .     S
Cu0   O40    1.93034       .     S
Cu0   O43    2.45621   1_565     T
Cu1   Cu0    2.71995   1_545     S
Cu1   O11    3.55584       .     T
Cu1   O13    3.04933   1_545     S
Cu1   N26    1.01499       .     T
Cu1   O41    1.95425       .     S
Cu1   O42    2.43807   1_545     D
C2    C3     1.50718   1_545     S
C2    O10    1.31688   1_545     D
C2    O11    1.30748       .     S
C3    C2     1.50718   1_565     S
C3    C4     1.24850       .     T
C4    C3     1.24850       .     S
C4    C5     1.48136       .     T
C5    C4     1.48136       .     S
C5    C6     1.24854   1_556     T
C6    C5     1.24854   1_554     S
C6    C7     1.48136       .     D
C7    C6     1.48136       .     S
C7    C8     1.24839       .     D
C8    C7     1.24839       .     D
C8    C9     1.50707       .     S
C9    C8     1.50707       .     S
C9    O12    1.30753       .     S
C9    O13    1.31692       .     D
O10   Cu0    2.97947       .     A
O10   C2     1.31688   1_565     A
O11   Cu1    3.55584       .     A
O11   C2     1.30748       .     S
O12   Cu0    3.62413       .     A
O12   C9     1.30753       .     T
O13   Cu1    3.04933   1_565     T
O13   C9     1.31692       .     S
H14   C24    1.08468       .     A
H15   C25    1.08467       .     D
C16   C18    1.42286       .     A
C16   C21    1.42802       .     S
C16   C24    1.49201       .     S
C17   C19    1.42303       .     S
C17   C20    1.42802       .     D
C17   C25    1.49187       .     D
C18   C16    1.42286       .     D
C18   C20    1.41686       .     D
C18   C22    1.48412       .     S
C19   C17    1.42303       .     S
C19   C21    1.41681       .     S
C19   C23    1.48411       .     D
C20   C17    1.42802       .     A
C20   C18    1.41686       .     A
C20   N29    1.43786       .     A
C21   C16    1.42802       .     S
C21   C19    1.41681       .     A
C21   N28    1.43773       .     T
C22   C18    1.48412       .     T
C22   N27    1.17164       .     S
C23   C19    1.48411       .     A
C23   N26    1.17164       .     D
C24   H14    1.08468       .     A
C24   C16    1.49201       .     S
C24   O34    1.22091       .     S
C25   H15    1.08467       .     S
C25   C17    1.49187       .     D
C25   O35    1.22072       .     D
N26   Cu1    1.01499       .     D
N26   C23    1.17164       .     S
N27   Cu0    0.96513       .     S
N27   C22    1.17164       .     T
N28   C21    1.43773       .     S
N28   O30    1.30127       .     D
N28   O31    1.30121       .     S
N29   C20    1.43786       .     D
N29   O32    1.30127       .     S
N29   O33    1.30124       .     S
O30   N28    1.30127       .     T
O31   N28    1.30121       .     S
O32   N29    1.30127       .     D
O33   N29    1.30124       .     S
O34   C24    1.22091       .     S
O35   C25    1.22072       .     S
C36   C37    1.40525       .     S
C36   O40    1.27405       .     S
C36   O43    1.27446   1_565     S
C37   C36    1.40525       .     S
C37   C38    1.18829   1_455     S
C38   C37    1.18829   1_655     S
C38   C39    1.40534       .     S
C39   C38    1.40534       .     S
C39   O41    1.27406   1_565     S
C39   O42    1.27445       .     S
O40   Cu0    1.93034       .     S
O40   C36    1.27405       .     S
O41   Cu1    1.95425       .     S
O41   C39    1.27406   1_545     S
O42   Cu1    2.43807   1_565     S
O42   C39    1.27445       .     S
O43   Cu0    2.45621   1_545     S
O43   C36    1.27446   1_545     S
