# generated using pymatgen
data_ZnH13C21(NO2)2
_symmetry_space_group_name_H-M   'P 1'
_cell_length_a   12.69732000
_cell_length_b   13.68734000
_cell_length_c   15.28099000
_cell_angle_alpha   87.42751000
_cell_angle_beta   74.25578000
_cell_angle_gamma   82.23594000
_symmetry_Int_Tables_number   1
_chemical_formula_structural   ZnH13C21(NO2)2
_chemical_formula_sum   'Zn2 H26 C42 N4 O8'
_cell_volume   2532.55981133
_cell_formula_units_Z   2
loop_
 _symmetry_equiv_pos_site_id
 _symmetry_equiv_pos_as_xyz
  1  'x, y, z'
loop_
 _atom_site_type_symbol
 _atom_site_label
 _atom_site_symmetry_multiplicity
 _atom_site_fract_x
 _atom_site_fract_y
 _atom_site_fract_z
 _atom_site_occupancy
  _atom_site_charge
  Zn  Zn0  1  0.21902438  0.78251710  0.87645910  1  1.141216
  Zn  Zn1  1  0.47346056  0.74674207  0.82168096  1  1.157325
  H  H2  1  0.59756610  0.58022800  0.20621346  1  0.046602
  H  H3  1  0.05863067  0.70534277  0.50774640  1  0.084732
  H  H4  1  0.30273744  0.75423187  0.15512290  1  0.040267
  H  H5  1  0.38472366  0.73229780  0.54479444  1  0.046804
  H  H6  1  0.95162433  0.82870140  0.24598527  1  0.041277
  H  H7  1  0.73350304  0.64284080  0.45499760  1  0.036967
  H  H8  1  0.71484110  0.59784870  0.30665994  1  0.045809
  H  H9  1  0.95515810  0.77641803  0.40110530  1  0.034028
  H  H10  1  0.48717022  0.59435560  0.10325482  1  0.066422
  H  H11  1  0.39883664  0.44911745  0.17942977  1  0.049648
  H  H12  1  0.34775360  0.50359650  0.08653618  1  0.052152
  H  H13  1  0.26962054  0.53063410  0.20169908  1  0.054984
  H  H14  1  0.16522308  0.66686340  0.61239964  1  0.090469
  H  H15  1  0.26741720  0.51880306  0.64582884  1  0.052442
  H  H16  1  0.34851938  0.50991380  0.52943176  1  0.055951
  H  H17  1  0.20395114  0.49255913  0.55845934  1  0.049099
  H  H18  1  0.46945158  0.24934621  0.79911417  1  0.054792
  H  H19  1  0.22077999  0.28149750  0.89893970  1  0.033937
  H  H20  1  0.04369175  0.01202726  0.87583300  1  0.032941
  H  H21  1  0.84681650  0.04984391  0.88106780  1  0.014055
  H  H22  1  0.67519990  0.99333143  0.87497430  1  0.029220
  H  H23  1  0.95647603  0.60156405  0.80822015  1  0.035048
  H  H24  1  0.84555160  0.47964785  0.78703280  1  0.042979
  H  H25  1  0.04067397  0.71054804  0.84117640  1  -0.005413
  H  H26  1  0.64327526  0.52436817  0.80934507  1  0.013779
  H  H27  1  0.57227945  0.86497450  0.85910430  1  0.016450
  C  C28  1  0.42259026  0.62737780  0.24054381  1  0.064504
  C  C29  1  0.23543845  0.66997576  0.47259355  1  0.079771
  C  C30  1  0.52548350  0.60871230  0.25924814  1  -0.098498
  C  C31  1  0.13425070  0.69969350  0.45312040  1  -0.090880
  C  C32  1  0.56354030  0.70819630  0.60315480  1  0.304289
  C  C33  1  0.12947983  0.81402960  0.09428707  1  0.279939
  C  C34  1  0.55864790  0.68815110  0.51112664  1  -0.085230
  C  C35  1  0.12782978  0.79194134  0.18924540  1  -0.088672
  C  C36  1  0.64145327  0.62367130  0.35954590  1  -0.076476
  C  C37  1  0.03121054  0.76770425  0.34703335  1  -0.028139
  C  C38  1  0.65235530  0.65081180  0.44334495  1  0.018449
  C  C39  1  0.02938999  0.79900540  0.25914633  1  0.040795
  C  C40  1  0.45484492  0.69610280  0.49494800  1  -0.000508
  C  C41  1  0.22661857  0.75185030  0.20766225  1  -0.003767
  C  C42  1  0.44113356  0.66101444  0.41497812  1  -0.013491
  C  C43  1  0.22865770  0.71194420  0.29287022  1  -0.012017
  C  C44  1  0.53645486  0.63049495  0.34431130  1  0.048048
  C  C45  1  0.13077721  0.72605526  0.36469358  1  0.037811
  C  C46  1  0.33506906  0.66491340  0.40072337  1  -0.021382
  C  C47  1  0.32834837  0.66710040  0.30999440  1  -0.017557
  C  C48  1  0.35441676  0.51642200  0.15596762  1  -0.089265
  C  C49  1  0.26531208  0.53466790  0.57436380  1  -0.087119
  C  C50  1  0.37281013  0.39261144  0.83067630  1  0.097050
  C  C51  1  0.31740645  0.13823046  0.86735400  1  -0.003762
  C  C52  1  0.32756890  0.58274895  0.83872460  1  0.369413
  C  C53  1  0.36262010  0.94808130  0.85922310  1  0.287558
  C  C54  1  0.33697876  0.05097914  0.86411333  1  -0.035029
  C  C55  1  0.35323146  0.47986406  0.83386990  1  -0.169263
  C  C56  1  0.30189252  0.24219629  0.86798110  1  -0.018674
  C  C57  1  0.38833874  0.28864710  0.83007985  1  -0.091952
  C  C58  1  0.88645023  0.97435800  0.87178080  1  -0.010861
  C  C59  1  0.69361390  0.57858104  0.81762654  1  0.040318
  C  C60  1  0.80650870  0.55376080  0.80578667  1  -0.055640
  C  C61  1  0.86950590  0.62470570  0.81820920  1  -0.022213
  C  C62  1  0.82048774  0.72252200  0.83927540  1  -0.002288
  C  C63  1  0.70569160  0.74495780  0.84667690  1  0.048750
  C  C64  1  0.88145570  0.79923430  0.84989200  1  -0.029967
  C  C65  1  0.82784766  0.89748114  0.86287683  1  -0.008720
  C  C66  1  0.71645206  0.91831475  0.86624104  1  -0.003521
  C  C67  1  0.65651500  0.84326200  0.85830516  1  -0.103575
  C  C68  1  0.99395955  0.78285380  0.84845990  1  -0.044746
  C  C69  1  0.99731815  0.95341640  0.86889553  1  -0.030308
  N  N70  1  0.41406322  0.59976640  0.15403707  1  -0.144880
  N  N71  1  0.23489015  0.63929640  0.56317220  1  -0.144153
  N  N72  1  0.04760873  0.85925376  0.85789190  1  -0.204004
  N  N73  1  0.64497520  0.67157084  0.83927590  1  -0.219796
  O  O74  1  0.65436610  0.68879354  0.62574040  1  -0.264399
  O  O75  1  0.03930330  0.83760834  0.07140995  1  -0.225054
  O  O76  1  0.47275534  0.73134017  0.66407980  1  -0.359336
  O  O77  1  0.22091411  0.79506165  0.03307056  1  -0.244600
  O  O78  1  0.40650073  0.63505656  0.80412450  1  -0.544835
  O  O79  1  0.28369454  0.89578485  0.89383507  1  -0.558925
  O  O80  1  0.22693592  0.61995030  0.87752420  1  -0.457002
  O  O81  1  0.46325940  0.91089100  0.82043535  1  -0.420179
