# generated using pymatgen
data_Zn3H7C25(ClO3)4
_symmetry_space_group_name_H-M   'P 1'
_cell_length_a   19.63895000
_cell_length_b   19.54133000
_cell_length_c   19.89655000
_cell_angle_alpha   70.95059000
_cell_angle_beta   74.91748000
_cell_angle_gamma   79.47673000
_symmetry_Int_Tables_number   1
_chemical_formula_structural   Zn3H7C25(ClO3)4
_chemical_formula_sum   'Zn6 H14 C50 Cl8 O24'
_cell_volume   6928.89102942
_cell_formula_units_Z   2
loop_
 _symmetry_equiv_pos_site_id
 _symmetry_equiv_pos_as_xyz
  1  'x, y, z'
loop_
 _atom_site_type_symbol
 _atom_site_label
 _atom_site_symmetry_multiplicity
 _atom_site_fract_x
 _atom_site_fract_y
 _atom_site_fract_z
 _atom_site_occupancy
  Zn  Zn0  1  0.93460006  0.36399668  0.63022184  1
  Zn  Zn1  1  0.93291680  0.30906530  0.50753015  1
  Zn  Zn2  1  0.87424170  0.89622070  0.58783305  1
  Zn  Zn3  1  0.99127686  0.78845770  0.54576486  1
  Zn  Zn4  1  0.49421775  0.81982404  0.01453391  1
  Zn  Zn5  1  0.36949122  0.86253214  0.11989741  1
  H  H6  1  0.21231735  0.20350708  0.74472120  1
  H  H7  1  0.11033909  0.18369666  0.85405700  1
  H  H8  1  0.28748488  0.13319597  0.81586635  1
  H  H9  1  0.18553466  0.11341424  0.92522380  1
  H  H10  1  0.13455053  0.03856235  0.95045227  1
  H  H11  1  0.31140646  0.07291712  0.76067220  1
  H  H12  1  0.05876612  0.10940041  0.87866205  1
  H  H13  1  0.23566766  0.14382248  0.68891540  1
  H  H14  1  0.77225690  0.48878995  0.55090237  1
  H  H15  1  0.59106785  0.69279665  0.08760823  1
  H  H16  1  0.61476094  0.57196456  0.37953780  1
  H  H17  1  0.74857430  0.60963390  0.25896448  1
  H  H18  1  0.68184733  0.62085450  0.15349118  1
  H  H19  1  0.68147594  0.56072694  0.48501855  1
  C  C20  1  0.24114576  0.78954010  0.25239060  1
  C  C21  1  0.17207006  0.86414670  0.34088940  1
  C  C22  1  0.20796831  0.82436200  0.29237515  1
  C  C23  1  0.14081366  0.89556295  0.38453227  1
  C  C24  1  0.28603310  0.74927120  0.20623256  1
  C  C25  1  0.09871846  0.92788290  0.43868710  1
  C  C26  1  0.71735580  0.91021640  0.72747090  1
  C  C27  1  0.67537140  0.81914115  0.85487660  1
  C  C28  1  0.69641120  0.86840340  0.78589946  1
  C  C29  1  0.65886503  0.77475710  0.91277850  1
  C  C30  1  0.74681300  0.96111315  0.66069120  1
  C  C31  1  0.63817160  0.71762140  0.97775690  1
  C  C32  1  0.14276543  0.03852331  0.77701400  1
  C  C33  1  0.19561566  0.98905843  0.82712007  1
  C  C34  1  0.09256421  0.16773263  0.73157454  1
  C  C35  1  0.27427655  0.99770010  0.90373210  1
  C  C36  1  0.31422865  0.96362746  0.94117880  1
  C  C37  1  0.36135098  0.92251110  0.98501223  1
  C  C38  1  0.00883292  0.25274120  0.65096070  1
  C  C39  1  0.26555820  0.09809337  0.79414730  1
  C  C40  1  0.16416557  0.07839788  0.90293970  1
  C  C41  1  0.11319988  0.12603740  0.85468996  1
  C  C42  1  0.21462858  0.14574748  0.74591637  1
  C  C43  1  0.05417386  0.20707881  0.69477320  1
  C  C44  1  0.22581768  0.03909656  0.85786780  1
  C  C45  1  0.13954583  0.11980924  0.77613604  1
  C  C46  1  0.96186120  0.18433145  0.55932490  1
  C  C47  1  0.90277004  0.98903364  0.58259475  1
  C  C48  1  0.92528194  0.05703095  0.57413880  1
  C  C49  1  0.94264436  0.11523547  0.56642990  1
  C  C50  1  0.48270145  0.78464687  0.13151210  1
  C  C51  1  0.88063530  0.39695674  0.50699100  1
  C  C52  1  0.53794540  0.74487620  0.17091595  1
  C  C53  1  0.82538974  0.43672225  0.46758643  1
  C  C54  1  0.53938670  0.75347470  0.23829938  1
  C  C55  1  0.82395530  0.42813495  0.40019965  1
  C  C56  1  0.59191650  0.71258485  0.27567634  1
  C  C57  1  0.77142775  0.46902040  0.36281696  1
  C  C58  1  0.64209760  0.66298646  0.24576917  1
  C  C59  1  0.72124135  0.51861286  0.39272818  1
  C  C60  1  0.64268565  0.65816116  0.17712091  1
  C  C61  1  0.72064286  0.52342623  0.46138480  1
  C  C62  1  0.59092680  0.69883030  0.13988340  1
  C  C63  1  0.77240320  0.48276220  0.49862300  1
  C  C64  1  0.69289005  0.61321920  0.28606454  1
  C  C65  1  0.67044526  0.56837930  0.35243785  1
  C  C66  1  0.87605880  0.68161124  0.52818966  1
  C  C67  1  0.96131486  0.47932306  0.61349860  1
  C  C68  1  0.90259040  0.60791180  0.55348190  1
  C  C69  1  0.92878723  0.54817796  0.57950910  1
  Cl  Cl70  1  0.26834738  0.94004070  0.77885570  1
  Cl  Cl71  1  0.15356097  0.91777563  0.90195644  1
  Cl  Cl72  1  0.16904326  0.03301152  0.68471990  1
  Cl  Cl73  1  0.05425801  0.01070148  0.80779743  1
  Cl  Cl74  1  0.47827137  0.81773955  0.27471277  1
  Cl  Cl75  1  0.88508123  0.36388200  0.36377802  1
  Cl  Cl76  1  0.76679260  0.45539355  0.28050932  1
  Cl  Cl77  1  0.59655690  0.72621757  0.35797986  1
  O  O78  1  0.07038918  0.99316690  0.41884726  1
  O  O79  1  0.08294804  0.88659465  0.50296940  1
  O  O80  1  0.29508734  0.78170400  0.13694663  1
  O  O81  1  0.28663912  0.67952050  0.22987193  1
  O  O82  1  0.58275855  0.72957283  0.02426112  1
  O  O83  1  0.66990490  0.65467924  0.98104030  1
  O  O84  1  0.71067320  0.02444231  0.64449006  1
  O  O85  1  0.78347580  0.93449800  0.60939920  1
  O  O86  1  0.42275670  0.89882517  0.95429910  1
  O  O87  1  0.34051780  0.90798100  0.05426550  1
  O  O88  1  0.02962992  0.26735100  0.58174825  1
  O  O89  1  0.94745857  0.27649920  0.68163260  1
  O  O90  1  0.93948203  0.92930040  0.60950430  1
  O  O91  1  0.93891840  0.21058059  0.61319950  1
  O  O92  1  0.84671430  0.98912627  0.56111187  1
  O  O93  1  0.00292873  0.21812953  0.50052387  1
  O  O94  1  0.49842718  0.81036997  0.06217276  1
  O  O95  1  0.86490950  0.37123373  0.57633050  1
  O  O96  1  0.41890930  0.79364085  0.16647966  1
  O  O97  1  0.94442750  0.38796276  0.47202358  1
  O  O98  1  0.01182520  0.45189060  0.57018435  1
  O  O99  1  0.97316710  0.47351566  0.67616516  1
  O  O100  1  0.89573914  0.71586450  0.46185002  1
  O  O101  1  0.84813980  0.71392380  0.57534700  1
