# generated using pymatgen
data_ZnH9C26I7(NO3)2
_symmetry_space_group_name_H-M   'P 1'
_cell_length_a   12.81849000
_cell_length_b   16.39714000
_cell_length_c   25.04361000
_cell_angle_alpha   85.66161000
_cell_angle_beta   89.24227000
_cell_angle_gamma   85.11192000
_symmetry_Int_Tables_number   1
_chemical_formula_structural   ZnH9C26I7(NO3)2
_chemical_formula_sum   'Zn2 H18 C52 I14 N4 O12'
_cell_volume   5229.53682215
_cell_formula_units_Z   2
loop_
 _symmetry_equiv_pos_site_id
 _symmetry_equiv_pos_as_xyz
  1  'x, y, z'
loop_
 _atom_site_type_symbol
 _atom_site_label
 _atom_site_symmetry_multiplicity
 _atom_site_fract_x
 _atom_site_fract_y
 _atom_site_fract_z
 _atom_site_occupancy
  Zn  Zn0  1  0.65182984  0.05586910  0.73742590  1
  Zn  Zn1  1  0.69985000  0.87627380  0.71669600  1
  H  H2  1  0.63157535  0.75697040  0.27836823  1
  H  H3  1  0.58834106  0.17837441  0.17441471  1
  H  H4  1  0.77703714  0.91610000  0.03278281  1
  H  H5  1  0.50829070  0.87819475  0.43818483  1
  H  H6  1  0.50336945  0.07079995  0.91835330  1
  H  H7  1  0.80332550  0.00693095  0.51518744  1
  H  H8  1  0.47967485  0.05863833  0.01579319  1
  H  H9  1  0.77803230  0.01732457  0.41771418  1
  H  H10  1  0.45841533  0.30181682  0.83000480  1
  H  H11  1  0.49667352  0.26721382  0.89763975  1
  H  H12  1  0.49559840  0.37416473  0.87522420  1
  H  H13  1  0.64735687  0.23063669  0.84273400  1
  H  H14  1  0.67859700  0.31038564  0.87752460  1
  H  H15  1  0.72694020  0.53712740  0.55284100  1
  H  H16  1  0.60434870  0.58055246  0.57845515  1
  H  H17  1  0.67906050  0.63876045  0.52959560  1
  H  H18  1  0.70287573  0.69194037  0.61257750  1
  H  H19  1  0.82520270  0.63436030  0.59964160  1
  C  C20  1  0.71710694  0.94899700  0.00750272  1
  C  C21  1  0.57343910  0.90511840  0.45511603  1
  C  C22  1  0.73038080  0.95405626  0.95216584  1
  C  C23  1  0.58912390  0.89676523  0.51009610  1
  C  C24  1  0.65314615  0.99873924  0.91992510  1
  C  C25  1  0.67268926  0.93349160  0.53176450  1
  C  C26  1  0.56367356  0.03707790  0.94308680  1
  C  C27  1  0.73961470  0.97784215  0.49850857  1
  C  C28  1  0.54989730  0.03008580  0.99818580  1
  C  C29  1  0.72491090  0.98423880  0.44347855  1
  C  C30  1  0.62673470  0.98636900  0.03055571  1
  C  C31  1  0.64152010  0.94814360  0.42168930  1
  C  C32  1  0.66109824  0.00364542  0.86214790  1
  C  C33  1  0.68668604  0.93013996  0.58899430  1
  C  C34  1  0.61006576  0.03025591  0.33852583  1
  C  C35  1  0.61326530  0.90502130  0.11425228  1
  C  C36  1  0.63188510  0.88403650  0.33880150  1
  C  C37  1  0.60755040  0.05111909  0.11364005  1
  C  C38  1  0.62151927  0.88827175  0.28331003  1
  C  C39  1  0.60207266  0.04705250  0.16939548  1
  C  C40  1  0.61045337  0.96559650  0.25462490  1
  C  C41  1  0.60775080  0.96976610  0.19819997  1
  C  C42  1  0.60417990  0.03846526  0.28220670  1
  C  C43  1  0.61282300  0.89690095  0.17065282  1
  C  C44  1  0.62445290  0.81653730  0.25625035  1
  C  C45  1  0.59395260  0.11881781  0.19655913  1
  C  C46  1  0.61931500  0.81964344  0.20068940  1
  C  C47  1  0.59403527  0.11574996  0.25221807  1
  C  C48  1  0.87128730  0.98846850  0.72772557  1
  C  C49  1  0.30350178  0.00807667  0.71952470  1
  C  C50  1  0.15540405  0.92841554  0.71780390  1
  C  C51  1  0.19866350  0.00040734  0.73059800  1
  C  C52  1  0.48260950  0.93977500  0.72140646  1
  C  C53  1  0.37045628  0.93584794  0.71441156  1
  C  C54  1  0.98353666  0.99279110  0.73414576  1
  C  C55  1  0.13523668  0.06392169  0.75245430  1
  C  C56  1  0.21866159  0.86520500  0.69546837  1
  C  C57  1  0.02688680  0.06572151  0.74683493  1
  C  C58  1  0.32713410  0.86351960  0.70070820  1
  C  C59  1  0.05068426  0.92059827  0.72914160  1
  C  C60  1  0.70243280  0.44629560  0.70475817  1
  C  C61  1  0.74890480  0.49591333  0.66475460  1
  C  C62  1  0.62679666  0.29604214  0.84507746  1
  C  C63  1  0.51244040  0.31078040  0.86292624  1
  C  C64  1  0.74136424  0.63030165  0.61039180  1
  C  C65  1  0.68444770  0.59427100  0.56529564  1
  C  C66  1  0.65403450  0.43231514  0.79728127  1
  C  C67  1  0.73048085  0.58241594  0.66384155  1
  C  C68  1  0.64849850  0.34662387  0.79354966  1
  C  C69  1  0.64927950  0.57077600  0.74919250  1
  C  C70  1  0.68668133  0.36174026  0.70021164  1
  C  C71  1  0.66751590  0.48352730  0.75076187  1
  I  I72  1  0.62635840  0.70168540  0.16938898  1
  I  I73  1  0.58235150  0.23370874  0.28360727  1
  I  I74  1  0.87020000  0.89648900  0.92042070  1
  I  I75  1  0.48050130  0.83199936  0.55771430  1
  I  I76  1  0.34015676  0.12762892  0.68601334  1
  I  I77  1  0.01466249  0.80080620  0.76246244  1
  I  I78  1  0.41703573  0.75174900  0.68501110  1
  I  I79  1  0.93823510  0.17955494  0.75935150  1
  I  I80  1  0.19910257  0.14031220  0.80788240  1
  I  I81  1  0.15386787  0.78930515  0.64001440  1
  I  I82  1  0.66863436  0.32079706  0.62232370  1
  I  I83  1  0.50663810  0.61223070  0.78760827  1
  I  I84  1  0.88306177  0.44652843  0.62193465  1
  I  I85  1  0.67873340  0.48094207  0.87347580  1
  N  N86  1  0.62676245  0.95429313  0.36500388  1
  N  N87  1  0.61419630  0.98079896  0.08747455  1
  N  N88  1  0.65955070  0.31234518  0.74436560  1
  N  N89  1  0.68903947  0.62011610  0.70804490  1
  O  O90  1  0.67768574  0.93524170  0.83875690  1
  O  O91  1  0.67163650  0.99871300  0.61227274  1
  O  O92  1  0.64272535  0.07560587  0.83637106  1
  O  O93  1  0.70659700  0.85834910  0.61465860  1
  O  O94  1  0.59917915  0.09673834  0.36715832  1
  O  O95  1  0.61302805  0.83858985  0.08581136  1
  O  O96  1  0.64898765  0.81022966  0.36642948  1
  O  O97  1  0.60864620  0.12476110  0.08566958  1
  O  O98  1  0.83807945  0.91610990  0.72878313  1
  O  O99  1  0.51573480  0.01205778  0.72061860  1
  O  O100  1  0.80879056  0.05512965  0.71965826  1
  O  O101  1  0.54502370  0.87303820  0.72974354  1
