# generated using pymatgen
data_Zn2H40C50N4O15
_symmetry_space_group_name_H-M   'P 1'
_cell_length_a   9.82379000
_cell_length_b   13.14478000
_cell_length_c   20.20914000
_cell_angle_alpha   94.68999000
_cell_angle_beta   92.36123000
_cell_angle_gamma   106.19970000
_symmetry_Int_Tables_number   1
_chemical_formula_structural   Zn2H40C50N4O15
_chemical_formula_sum   'Zn2 H40 C50 N4 O15'
_cell_volume   2492.03916643
_cell_formula_units_Z   1
loop_
 _symmetry_equiv_pos_site_id
 _symmetry_equiv_pos_as_xyz
  1  'x, y, z'
loop_
 _atom_site_type_symbol
 _atom_site_label
 _atom_site_symmetry_multiplicity
 _atom_site_fract_x
 _atom_site_fract_y
 _atom_site_fract_z
 _atom_site_occupancy
  Zn  Zn0  1  0.45865220  0.46473646  0.35047892  1
  Zn  Zn1  1  0.77055025  0.48260647  0.36863878  1
  H  H2  1  0.94404210  0.81111240  0.28194383  1
  H  H3  1  0.66920240  0.22118402  0.27816010  1
  H  H4  1  0.39204216  0.20490956  0.50837790  1
  H  H5  1  0.25408593  0.08198404  0.51624770  1
  H  H6  1  0.07145703  0.17872131  0.51225305  1
  H  H7  1  0.20746095  0.23874223  0.57821137  1
  H  H8  1  0.20635766  0.30093682  0.50179840  1
  H  H9  1  0.85083750  0.13839221  0.24652760  1
  H  H10  1  0.96112170  0.99192214  0.25258717  1
  H  H11  1  0.58479450  0.81177940  0.39376270  1
  H  H12  1  0.39108187  0.84770100  0.38147664  1
  H  H13  1  0.22250800  0.93790907  0.41967487  1
  H  H14  1  0.75383900  0.49357780  0.15129447  1
  H  H15  1  0.47556790  0.40748435  0.57590824  1
  H  H16  1  0.92569300  0.55716770  0.61397177  1
  H  H17  1  0.30660910  0.44948110  0.10452890  1
  H  H18  1  0.79826510  0.50610180  0.03451788  1
  H  H19  1  0.44537902  0.41717017  0.69457070  1
  H  H20  1  0.89593214  0.56125610  0.73362800  1
  H  H21  1  0.34956014  0.45493892  0.98695830  1
  H  H22  1  0.45020230  0.57273185  0.90935750  1
  H  H23  1  0.80628246  0.40920794  0.81426770  1
  H  H24  1  0.48751774  0.57448250  0.79067147  1
  H  H25  1  0.76495355  0.40225828  0.93234070  1
  H  H26  1  0.03644529  0.57058600  0.45457828  1
  H  H27  1  0.28380093  0.55521303  0.45576188  1
  H  H28  1  0.02069347  0.18613818  0.17263073  1
  H  H29  1  0.19607623  0.17137732  0.16970354  1
  H  H30  1  0.08700036  0.32679940  0.09158319  1
  H  H31  1  0.25962270  0.30446792  0.08876532  1
  H  H32  1  0.14525399  0.11345410  0.04617881  1
  H  H33  1  0.09932987  0.20420654  0.99284520  1
  H  H34  1  0.97198230  0.13694036  0.04825563  1
  H  H35  1  0.77989020  0.40358430  0.16177122  1
  H  H36  1  0.71526180  0.31515443  0.22354613  1
  H  H37  1  0.78122324  0.26428480  0.07873320  1
  H  H38  1  0.75243765  0.16579804  0.13720982  1
  H  H39  1  0.51191730  0.17680362  0.15309064  1
  H  H40  1  0.53240293  0.16129985  0.06497297  1
  H  H41  1  0.53744780  0.29012770  0.10542812  1
  C  C42  1  0.46809685  0.14956129  0.36727260  1
  C  C43  1  0.51352680  0.26558090  0.37613160  1
  C  C44  1  0.71734900  0.68592674  0.34022330  1
  C  C45  1  0.87569463  0.95259090  0.28197974  1
  C  C46  1  0.75739217  0.79974040  0.33753505  1
  C  C47  1  0.34647280  0.09276032  0.39767116  1
  C  C48  1  0.31847670  0.98308830  0.39916730  1
  C  C49  1  0.54361606  0.98989123  0.35074347  1
  C  C50  1  0.41744214  0.93235060  0.37780496  1
  C  C51  1  0.27918640  0.15951061  0.49419045  1
  C  C52  1  0.18504924  0.22351110  0.52342620  1
  C  C53  1  0.55828030  0.09542894  0.33741170  1
  C  C54  1  0.65596150  0.94612200  0.33651546  1
  C  C55  1  0.76802040  0.99951893  0.29865268  1
  C  C56  1  0.76877440  0.09751427  0.27703350  1
  C  C57  1  0.66519237  0.14517522  0.29619318  1
  C  C58  1  0.66080964  0.85109395  0.36025240  1
  C  C59  1  0.86827890  0.85111900  0.29996190  1
  C  C60  1  0.72236466  0.47844150  0.51329700  1
  C  C61  1  0.50162790  0.46894783  0.20812201  1
  C  C62  1  0.57751010  0.48168772  0.00145543  1
  C  C63  1  0.66839030  0.49025494  0.72252315  1
  C  C64  1  0.52710074  0.47190460  0.13707995  1
  C  C65  1  0.70255905  0.48247206  0.58519190  1
  C  C66  1  0.52696590  0.53554910  0.88918775  1
  C  C67  1  0.72907550  0.44551370  0.83498540  1
  C  C68  1  0.54879640  0.53736645  0.82159936  1
  C  C69  1  0.70566964  0.44203597  0.90239143  1
  C  C70  1  0.64967420  0.49216098  0.79418270  1
  C  C71  1  0.60404390  0.48679394  0.93017640  1
  C  C72  1  0.66499100  0.48627183  0.11600971  1
  C  C73  1  0.56763120  0.44369330  0.60910990  1
  C  C74  1  0.82052370  0.52523830  0.63091487  1
  C  C75  1  0.41425842  0.46143240  0.08973825  1
  C  C76  1  0.69018320  0.49215270  0.04896533  1
  C  C77  1  0.55042976  0.44838852  0.67718685  1
  C  C78  1  0.80377287  0.52821010  0.69912760  1
  C  C79  1  0.43910316  0.46555457  0.02249563  1
  C  C80  1  0.02187095  0.43673667  0.30617708  1
  C  C81  1  0.06857534  0.52802000  0.41275415  1
  C  C82  1  0.21019581  0.51906670  0.41347837  1
  C  C83  1  0.15883756  0.42395440  0.30893216  1
  C  C84  1  0.11612684  0.31511730  0.27223113  1
  C  C85  1  0.96455663  0.32906696  0.26542056  1
  C  C86  1  0.13349810  0.22901301  0.16611582  1
  C  C87  1  0.14593387  0.26656803  0.09641235  1
  C  C88  1  0.08676890  0.17423852  0.04272318  1
  C  C89  1  0.78438544  0.32841864  0.18124826  1
  C  C90  1  0.72778750  0.23969987  0.12467810  1
  C  C91  1  0.56743455  0.21584551  0.11123851  1
  N  N92  1  0.97183980  0.48180953  0.36043695  1
  N  N93  1  0.25320446  0.46261412  0.36239335  1
  N  N94  1  0.12689630  0.22943340  0.31347376  1
  N  N95  1  0.86122763  0.24692585  0.29770312  1
  O  O96  1  0.41809404  0.31555450  0.38023650  1
  O  O97  1  0.64860505  0.31487060  0.38209632  1
  O  O98  1  0.58269703  0.63687190  0.33667105  1
  O  O99  1  0.81320804  0.63618803  0.33853087  1
  O  O100  1  0.25278938  0.14374912  0.42433485  1
  O  O101  1  0.61664474  0.47300372  0.47082555  1
  O  O102  1  0.60656940  0.47321670  0.25041200  1
  O  O103  1  0.37534773  0.46304408  0.22715402  1
  O  O104  1  0.84786650  0.48317638  0.49408346  1
  O  O105  1  0.19176352  0.31793112  0.21351787  1
  O  O106  1  0.14914860  0.24816735  0.37788945  1
  O  O107  1  0.07961759  0.13071458  0.28847355  1
  O  O108  1  0.92876220  0.33822230  0.19751595  1
  O  O109  1  0.86394846  0.25146756  0.36237952  1
  O  O110  1  0.79679490  0.15649381  0.26384740  1
