# generated using pymatgen
data_ZnH11C24N4O5F
_symmetry_space_group_name_H-M   'P 1'
_cell_length_a   15.15383000
_cell_length_b   15.59310000
_cell_length_c   16.00620000
_cell_angle_alpha   84.59145000
_cell_angle_beta   94.66722000
_cell_angle_gamma   98.44855000
_symmetry_Int_Tables_number   1
_chemical_formula_structural   ZnH11C24N4O5F
_chemical_formula_sum   'Zn2 H22 C48 N8 O10 F2'
_cell_volume   3715.72326043
_cell_formula_units_Z   2
loop_
 _symmetry_equiv_pos_site_id
 _symmetry_equiv_pos_as_xyz
  1  'x, y, z'
loop_
 _atom_site_type_symbol
 _atom_site_label
 _atom_site_symmetry_multiplicity
 _atom_site_fract_x
 _atom_site_fract_y
 _atom_site_fract_z
 _atom_site_occupancy
  Zn  Zn0  1  0.44586995  0.31405354  0.02918659  1
  Zn  Zn1  1  0.57507515  0.48077443  0.98889160  1
  H  H2  1  0.30055666  0.87781286  0.85963315  1
  H  H3  1  0.44554140  0.68744420  0.00136731  1
  H  H4  1  0.58756060  0.10616398  0.97628987  1
  H  H5  1  0.77210104  0.75942580  0.06208281  1
  H  H6  1  0.27728120  0.03012216  0.85685760  1
  H  H7  1  0.39058542  0.76447093  0.90150070  1
  H  H8  1  0.67760986  0.02289903  0.95227590  1
  H  H9  1  0.76425135  0.90987420  0.00546368  1
  H  H10  1  0.11425638  0.49245077  0.92671590  1
  H  H11  1  0.74373996  0.33387563  0.99495940  1
  H  H12  1  0.26332486  0.44673600  0.93315750  1
  H  H13  1  0.81259210  0.62522954  0.96947515  1
  H  H14  1  0.21176419  0.17466086  0.05530692  1
  H  H15  1  0.02724770  0.62690560  0.00489240  1
  H  H16  1  0.13076487  0.61366380  0.12257563  1
  H  H17  1  0.08839420  0.50016105  0.14098361  1
  H  H18  1  0.01988538  0.58198124  0.15881725  1
  H  H19  1  0.01464026  0.19169708  0.11429908  1
  H  H20  1  0.95443490  0.24943724  0.22509868  1
  H  H21  1  0.99294110  0.35822815  0.18297619  1
  H  H22  1  0.07296139  0.28818800  0.22877127  1
  H  H23  1  0.89115334  0.28713208  0.99227434  1
  C  C24  1  0.54844340  0.93853260  0.94473000  1
  C  C25  1  0.42058440  0.83033610  0.91109186  1
  C  C26  1  0.64200560  0.95792705  0.96216995  1
  C  C27  1  0.69297540  0.89278790  0.99149114  1
  C  C28  1  0.51786930  0.55118670  0.06451588  1
  C  C29  1  0.56565094  0.63949880  0.04995240  1
  C  C30  1  0.46573100  0.15332735  0.93233275  1
  C  C31  1  0.70091480  0.74391216  0.04660580  1
  C  C32  1  0.34598577  0.04628897  0.88120660  1
  C  C33  1  0.65849750  0.65991630  0.06744362  1
  C  C34  1  0.37747055  0.13180232  0.89844036  1
  C  C35  1  0.51715183  0.70305290  0.01035599  1
  C  C36  1  0.52160460  0.08918345  0.94681835  1
  C  C37  1  0.50462360  0.24278188  0.94726250  1
  C  C38  1  0.55890924  0.78631526  0.98590100  1
  C  C39  1  0.49224183  0.00382602  0.92761360  1
  C  C40  1  0.36856714  0.89551640  0.88520783  1
  C  C41  1  0.65153635  0.80762964  0.00742967  1
  C  C42  1  0.40209380  0.98186900  0.89711570  1
  C  C43  1  0.50902330  0.85063280  0.94661310  1
  C  C44  1  0.49346235  0.41465646  0.84969780  1
  C  C45  1  0.52566856  0.38179870  0.17099829  1
  C  C46  1  0.58623105  0.37448110  0.47922406  1
  C  C47  1  0.43289986  0.42197403  0.54147196  1
  C  C48  1  0.43703327  0.41775697  0.45436603  1
  C  C49  1  0.58209760  0.37869814  0.56633013  1
  C  C50  1  0.51369464  0.39401490  0.42333177  1
  C  C51  1  0.50543520  0.40244135  0.59738670  1
  C  C52  1  0.51794106  0.38968260  0.33384487  1
  C  C53  1  0.50118990  0.40677260  0.68685130  1
  C  C54  1  0.49765867  0.41037524  0.76126647  1
  C  C55  1  0.52147230  0.38607994  0.25942957  1
  C  C56  1  0.65665436  0.35865322  0.62404984  1
  C  C57  1  0.36247665  0.43780193  0.39664620  1
  C  C58  1  0.35407758  0.44637084  0.57364357  1
  C  C59  1  0.66505330  0.35008428  0.44705245  1
  C  C60  1  0.21131594  0.40725634  0.96766937  1
  C  C61  1  0.87028444  0.52732426  0.01076979  1
  C  C62  1  0.16155986  0.28015843  0.05355027  1
  C  C63  1  0.95673540  0.50196520  0.01790120  1
  C  C64  1  0.07758731  0.30819127  0.05852563  1
  C  C65  1  0.96651626  0.41440088  0.01012599  1
  C  C66  1  0.05783711  0.38525072  0.01162493  1
  C  C67  1  0.06965759  0.56493133  0.11811653  1
  C  C68  1  0.00845258  0.29040560  0.19079892  1
  C  C69  1  0.88766050  0.35466632  0.00025059  1
  C  C70  1  0.12628905  0.43388674  0.96519476  1
  C  C71  1  0.80300640  0.38148734  0.00033606  1
  N  N72  1  0.71606330  0.34265894  0.67010360  1
  N  N73  1  0.30306765  0.45379627  0.35059243  1
  N  N74  1  0.29126320  0.46583956  0.59935470  1
  N  N75  1  0.72786780  0.33061567  0.42134145  1
  N  N76  1  0.79473190  0.46663780  0.00544112  1
  N  N77  1  0.22844490  0.33158806  0.01146311  1
  N  N78  1  0.03342836  0.56510490  0.03168014  1
  N  N79  1  0.01297512  0.25785080  0.10980675  1
  O  O80  1  0.43263724  0.53785515  0.03901611  1
  O  O81  1  0.58842224  0.25627375  0.97736096  1
  O  O82  1  0.56354225  0.48849785  0.09366947  1
  O  O83  1  0.45751740  0.30563116  0.92270770  1
  O  O84  1  0.51817960  0.35382763  0.90123725  1
  O  O85  1  0.50095135  0.44262750  0.11945886  1
  O  O86  1  0.46502095  0.47928467  0.87663925  1
  O  O87  1  0.55410993  0.31717044  0.14405690  1
  O  O88  1  0.86397480  0.61442703  0.00901208  1
  O  O89  1  0.17407738  0.19969400  0.09138961  1
  F  F90  1  0.70828360  0.59951776  0.10478258  1
  F  F91  1  0.32128304  0.19256449  0.88278010  1
