# generated using pymatgen
data_Zn4H16C62N5O26F7
_symmetry_space_group_name_H-M   'P 1'
_cell_length_a   24.13633000
_cell_length_b   25.94695000
_cell_length_c   29.76851000
_cell_angle_alpha   88.94949000
_cell_angle_beta   87.85483000
_cell_angle_gamma   96.25865000
_symmetry_Int_Tables_number   1
_chemical_formula_structural   Zn4H16C62N5O26F7
_chemical_formula_sum   'Zn8 H32 C124 N10 O52 F14'
_cell_volume   18514.13413209
_cell_formula_units_Z   2
loop_
 _symmetry_equiv_pos_site_id
 _symmetry_equiv_pos_as_xyz
  1  'x, y, z'
loop_
 _atom_site_type_symbol
 _atom_site_label
 _atom_site_symmetry_multiplicity
 _atom_site_fract_x
 _atom_site_fract_y
 _atom_site_fract_z
 _atom_site_occupancy
  _atom_site_charge
  Zn  Zn0  1  0.39076540  0.52660555  0.44855958  1  1.222348
  Zn  Zn1  1  0.49533942  0.60925376  0.43792640  1  1.263837
  Zn  Zn2  1  0.46723497  0.53106445  0.36001340  1  1.160035
  Zn  Zn3  1  0.39136353  0.61944705  0.37860706  1  1.238187
  Zn  Zn4  1  0.88755697  0.02088788  0.37497222  1  1.231726
  Zn  Zn5  1  0.99951774  0.09660470  0.36428943  1  1.521720
  Zn  Zn6  1  0.89784940  0.12852108  0.42237510  1  1.340399
  Zn  Zn7  1  0.96569794  0.03867144  0.45712173  1  2.843945
  H  H8  1  0.69072000  0.23121797  0.38626540  1  0.112872
  H  H9  1  0.68029785  0.41862930  0.45867822  1  0.110898
  H  H10  1  0.84099230  0.11168618  0.66913810  1  0.149401
  H  H11  1  0.03404605  0.03247895  0.14072680  1  0.085354
  H  H12  1  0.87463486  0.09192061  0.14878750  1  0.136878
  H  H13  1  0.00098991  0.05335057  0.66097540  1  0.113526
  H  H14  1  0.82916874  0.97496930  0.87708780  1  0.041506
  H  H15  1  0.04629397  0.16965279  0.93272865  1  0.013168
  H  H16  1  0.82444630  0.98036670  0.79836565  1  0.059561
  H  H17  1  0.05100799  0.16426434  0.01145220  1  0.396584
  H  H18  1  0.84478650  0.96650590  0.02345180  1  0.072738
  H  H19  1  0.03056967  0.17821033  0.78637314  1  0.062258
  H  H20  1  0.83681357  0.96942800  0.94494790  1  0.050659
  H  H21  1  0.03857553  0.17526118  0.86488104  1  0.054184
  H  H22  1  0.09458901  0.99695766  0.36981240  1  0.164638
  H  H23  1  0.28530365  0.65019494  0.44718668  1  0.186333
  H  H24  1  0.25827894  0.85295090  0.44608763  1  0.182708
  H  H25  1  0.16050573  0.74466720  0.36028660  1  0.172861
  H  H26  1  0.18147226  0.72203296  0.44538420  1  0.197091
  H  H27  1  0.19746712  0.92430650  0.37193054  1  0.215805
  H  H28  1  0.46447745  0.70666920  0.92879600  1  0.057954
  H  H29  1  0.41091326  0.44353050  0.95018166  1  0.052727
  H  H30  1  0.39265856  0.44088504  0.88304450  1  0.058294
  H  H31  1  0.48527208  0.69844234  0.86164640  1  0.058955
  H  H32  1  0.46255356  0.71154433  0.00813365  1  0.060899
  H  H33  1  0.40982077  0.45148468  0.02926683  1  0.064339
  H  H34  1  0.39460590  0.43599817  0.80370740  1  0.058013
  H  H35  1  0.48634115  0.69050014  0.78256060  1  0.058929
  H  H36  1  0.52178030  0.61652130  0.14394712  1  0.160506
  H  H37  1  0.34569433  0.56727550  0.14987516  1  0.161568
  H  H38  1  0.37496800  0.59975950  0.66201070  1  0.163547
  H  H39  1  0.51086795  0.50596400  0.66783625  1  0.164068
  C  C40  1  0.03317349  0.18775949  0.38195290  1  2.194768
  C  C41  1  0.08120713  0.22861162  0.38891235  1  -0.774955
  C  C42  1  0.12117103  0.26268953  0.39469928  1  0.425471
  C  C43  1  0.16865204  0.30366590  0.40163560  1  -0.135407
  C  C44  1  0.20842347  0.33827215  0.40747014  1  0.087322
  C  C45  1  0.25581828  0.37940544  0.41440192  1  0.036822
  C  C46  1  0.29553118  0.41377640  0.42026472  1  -0.042072
  C  C47  1  0.34274468  0.45543382  0.42738914  1  0.286133
  C  C48  1  0.50675240  0.45545286  0.41747236  1  0.354943
  C  C49  1  0.86903095  0.18552648  0.39195020  1  0.482182
  C  C50  1  0.54776930  0.41964915  0.42474440  1  -0.120326
  C  C51  1  0.82993550  0.22394125  0.38932720  1  -0.163886
  C  C52  1  0.60075235  0.43872050  0.43958777  1  0.151721
  C  C53  1  0.77296466  0.20756884  0.38416842  1  0.179114
  C  C54  1  0.63884870  0.40407372  0.44866732  1  -0.044615
  C  C55  1  0.73477780  0.24337292  0.38963053  1  -0.060925
  C  C56  1  0.62541980  0.35110850  0.44259040  1  0.023315
  C  C57  1  0.75254625  0.29487035  0.39915586  1  0.032294
  C  C58  1  0.57199234  0.33121848  0.42965922  1  0.065330
  C  C59  1  0.80950433  0.31254584  0.40122166  1  0.059507
  C  C60  1  0.53265040  0.36577788  0.42075494  1  0.115201
  C  C61  1  0.84857947  0.27662194  0.39634960  1  0.130537
  C  C62  1  0.67126760  0.31934565  0.43955424  1  0.218460
  C  C63  1  0.71013725  0.32957688  0.40634860  1  0.214769
  C  C64  1  0.92945600  0.07789753  0.81054640  1  0.053620
  C  C65  1  0.94594880  0.06677844  0.99927050  1  -0.020517
  C  C66  1  0.89042830  0.04344581  0.78892990  1  -0.082429
  C  C67  1  0.98499260  0.10121673  0.02088451  1  0.005809
  C  C68  1  0.85507447  0.00699720  0.81425160  1  0.048605
  C  C69  1  0.02036893  0.13764425  0.99556820  1  -0.510516
  C  C70  1  0.96459040  0.11491753  0.78462857  1  -0.059090
  C  C71  1  0.91078526  0.02977933  0.02519298  1  -0.006858
  C  C72  1  0.91757494  0.08239825  0.57647430  1  -0.221871
  C  C73  1  0.95766830  0.06224430  0.23334956  1  -0.154219
  C  C74  1  0.90201795  0.03451841  0.93077420  1  0.002462
  C  C75  1  0.97339820  0.11014691  0.87905020  1  0.004479
  C  C76  1  0.97777450  0.10713948  0.92636180  1  -0.008020
  C  C77  1  0.89765227  0.03751562  0.88345134  1  0.015397
  C  C78  1  0.94192547  0.06946364  0.95190820  1  -0.007968
  C  C79  1  0.93349030  0.07520190  0.85790690  1  -0.022192
  C  C80  1  0.86779964  0.99754244  0.95796853  1  -0.010648
  C  C81  1  0.00759673  0.14714248  0.85185000  1  -0.018256
  C  C82  1  0.87218976  0.99534380  0.00418448  1  -0.019558
  C  C83  1  0.00318515  0.14935750  0.80563740  1  -0.010528
  C  C84  1  0.91573470  0.08238389  0.52732770  1  0.379998
  C  C85  1  0.95946850  0.06221249  0.28250718  1  0.273018
  C  C86  1  0.85839150  0.00408317  0.86053650  1  -0.013796
  C  C87  1  0.01705253  0.14055386  0.94928294  1  0.190823
  C  C88  1  0.88796450  0.04602748  0.74211460  1  0.200989
  C  C89  1  0.98744404  0.09864230  0.06771088  1  0.035143
  C  C90  1  0.96047100  0.11642183  0.73791710  1  0.197565
  C  C91  1  0.91487485  0.02830040  0.07190943  1  0.077911
  C  C92  1  0.96543180  0.06613843  0.64453524  1  -0.050789
  C  C93  1  0.91004760  0.07888611  0.16524792  1  -0.207304
  C  C94  1  0.96389693  0.06601490  0.59798180  1  0.176753
  C  C95  1  0.91153526  0.07897565  0.21180451  1  0.390911
  C  C96  1  0.87314063  0.09898279  0.60260060  1  0.437660
  C  C97  1  0.00196171  0.04536978  0.20724964  1  0.277471
  C  C98  1  0.87521090  0.09903023  0.64915380  1  -0.232285
  C  C99  1  0.99994110  0.04537121  0.16069376  1  0.079798
  C  C100  1  0.92121816  0.08259142  0.67004675  1  0.188958
  C  C101  1  0.95412140  0.06213846  0.13977158  1  0.124366
  C  C102  1  0.96724150  0.92074930  0.43064573  1  0.304404
  C  C103  1  0.40885982  0.72359836  0.37987775  1  0.455678
  C  C104  1  0.35268360  0.74210940  0.38503498  1  -0.227026
  C  C105  1  0.02357481  0.90220110  0.42638380  1  0.754792
  C  C106  1  0.34282030  0.78931284  0.36429772  1  0.300336
  C  C107  1  0.03229060  0.85392886  0.44581327  1  -0.268325
  C  C108  1  0.29086038  0.80760610  0.36877856  1  0.223257
  C  C109  1  0.08440547  0.83583534  0.44269446  1  0.456655
  C  C110  1  0.24729115  0.77967400  0.39426184  1  -0.100129
  C  C111  1  0.12949084  0.86500310  0.41995910  1  -0.206333
  C  C112  1  0.25586060  0.73179835  0.41531440  1  0.091044
  C  C113  1  0.12207677  0.91381824  0.40008646  1  0.236787
  C  C114  1  0.30883830  0.71305010  0.41056310  1  0.179045
  C  C115  1  0.06886584  0.93239390  0.40342796  1  -0.072922
  C  C116  1  0.19215897  0.80055140  0.39706420  1  0.118728
  C  C117  1  0.18464488  0.84480330  0.41939777  1  0.193679
  C  C118  1  0.54011947  0.68251544  0.44454834  1  0.390611
  C  C119  1  0.58519710  0.72588340  0.43244258  1  -0.072563
  C  C120  1  0.62279594  0.76196830  0.42238220  1  0.092732
  C  C121  1  0.66799940  0.80484150  0.41041607  1  0.010909
  C  C122  1  0.70616980  0.84075576  0.40039548  1  0.034858
  C  C123  1  0.75153947  0.88355550  0.38846496  1  0.045956
  C  C124  1  0.78946360  0.91940540  0.37840608  1  0.002187
  C  C125  1  0.83542687  0.96201736  0.36637136  1  0.161537
  C  C126  1  0.48296633  0.60739300  0.16333580  1  -0.294432
  C  C127  1  0.38382512  0.57932700  0.16670012  1  -0.295428
  C  C128  1  0.40509123  0.57796526  0.64516290  1  -0.294214
  C  C129  1  0.48142782  0.52483505  0.64847020  1  -0.293542
  C  C130  1  0.48230645  0.61127810  0.20992517  1  0.489880
  C  C131  1  0.38270400  0.58299893  0.21331191  1  0.492614
  C  C132  1  0.40583530  0.57434740  0.59855140  1  0.495170
  C  C133  1  0.48246947  0.52091230  0.60187936  1  0.495927
  C  C134  1  0.43205100  0.59907030  0.23547447  1  -0.349364
  C  C135  1  0.44460106  0.54569450  0.57635980  1  -0.342630
  C  C136  1  0.43383735  0.59147286  0.14165652  1  0.279355
  C  C137  1  0.44281483  0.55329190  0.67017780  1  0.281214
  C  C138  1  0.43111306  0.60305960  0.28473532  1  0.380521
  C  C139  1  0.44553906  0.54170525  0.52709900  1  0.390221
  C  C140  1  0.44981840  0.62175010  0.92576910  1  0.008756
  C  C141  1  0.42592984  0.52685875  0.93353400  1  0.001470
  C  C142  1  0.42419416  0.52339315  0.88606590  1  0.031332
  C  C143  1  0.45336178  0.61752766  0.87829940  1  0.029108
  C  C144  1  0.43742722  0.57620540  0.95312476  1  0.006182
  C  C145  1  0.43922493  0.56855950  0.85870950  1  -0.028241
  C  C146  1  0.45780978  0.67018145  0.94704090  1  -0.041314
  C  C147  1  0.41697437  0.48247483  0.96232660  1  -0.027827
  C  C148  1  0.40743133  0.47620168  0.86478860  1  -0.054382
  C  C149  1  0.47107825  0.66066337  0.84949450  1  -0.052852
  C  C150  1  0.45602235  0.67352265  0.99353620  1  0.009974
  C  C151  1  0.41701472  0.48667080  0.00873315  1  -0.010959
  C  C152  1  0.40770632  0.47309494  0.81830174  1  0.019368
  C  C153  1  0.47257185  0.65624815  0.80309670  1  0.019105
  C  C154  1  0.44597670  0.62881580  0.02066708  1  -0.060042
  C  C155  1  0.42616050  0.53515130  0.02828801  1  -0.054824
  C  C156  1  0.42444530  0.51684140  0.79115963  1  -0.072152
  C  C157  1  0.45671582  0.60872890  0.78353450  1  -0.071711
  C  C158  1  0.43653065  0.58005350  0.00065899  1  0.045178
  C  C159  1  0.44012144  0.56471130  0.81117517  1  0.068247
  C  C160  1  0.44467770  0.63177675  0.06765616  1  0.193861
  C  C161  1  0.42567268  0.53978956  0.07513535  1  0.192178
  C  C162  1  0.42542080  0.51393616  0.74417930  1  0.199559
  C  C163  1  0.45753315  0.60402733  0.73669773  1  0.199520
  N  N164  1  0.61624026  0.49290960  0.44636542  1  -0.024262
  N  N165  1  0.75342417  0.15507450  0.37313932  1  -0.022003
  N  N166  1  0.90637475  0.29266214  0.40301675  1  -0.022715
  N  N167  1  0.47799408  0.34624726  0.40690910  1  -0.012048
  N  N168  1  0.55959730  0.27692887  0.42127900  1  -0.008878
  N  N169  1  0.82761010  0.36602970  0.40987190  1  -0.000851
  N  N170  1  0.92292090  0.08196938  0.71780080  1  -0.182204
  N  N171  1  0.95244310  0.06274238  0.09202290  1  -0.131866
  N  N172  1  0.43475780  0.58759356  0.09376752  1  -0.195513
  N  N173  1  0.44189432  0.55717134  0.71806670  1  -0.197379
  O  O174  1  0.00525039  0.16402651  0.41490960  1  -3.638493
  O  O175  1  0.33394380  0.50305880  0.43069038  1  -0.589189
  O  O176  1  0.39308998  0.44501707  0.43070224  1  -0.317276
  O  O177  1  0.01818774  0.17437534  0.34273624  1  -1.681979
  O  O178  1  0.43617582  0.57159270  0.40627658  1  -0.945876
  O  O179  1  0.93765570  0.07117245  0.40468916  1  -0.726539
  O  O180  1  0.46027252  0.44759050  0.44005913  1  -0.241079
  O  O181  1  0.91527337  0.19312946  0.36899638  1  -0.402247
  O  O182  1  0.51894355  0.49582264  0.39175546  1  -0.504110
  O  O183  1  0.85660240  0.14489733  0.41730002  1  -0.930962
  O  O184  1  0.66583120  0.51402384  0.43356660  1  -0.070750
  O  O185  1  0.58548100  0.51842570  0.47274315  1  -0.096786
  O  O186  1  0.70410600  0.13456973  0.38731024  1  -0.057982
  O  O187  1  0.78146213  0.13009755  0.34419626  1  -0.064123
  O  O188  1  0.92250560  0.30672450  0.44259740  1  -0.073873
  O  O189  1  0.94142500  0.29957265  0.36861074  1  -0.071687
  O  O190  1  0.45739007  0.36561507  0.37137097  1  -0.092596
  O  O191  1  0.44929492  0.30797780  0.42907384  1  -0.050765
  O  O192  1  0.54095256  0.26176172  0.38269934  1  -0.056855
  O  O193  1  0.56560630  0.24252962  0.45254760  1  -0.027436
  O  O194  1  0.80320320  0.39022310  0.44158772  1  -0.050238
  O  O195  1  0.86983630  0.39033782  0.38697960  1  -0.049305
  O  O196  1  0.95003974  0.05685831  0.50448800  1  -0.386794
  O  O197  1  0.92515510  0.08773065  0.30534768  1  -0.328563
  O  O198  1  0.88004830  0.10823218  0.50774980  1  -0.271935
  O  O199  1  0.99514660  0.03635678  0.30208576  1  -0.253515
  O  O200  1  0.85149680  0.01253519  0.72090286  1  -0.171222
  O  O201  1  0.02394271  0.13210034  0.08891714  1  -0.157439
  O  O202  1  0.88167197  0.99280690  0.09713840  1  -0.100608
  O  O203  1  0.99362870  0.15196596  0.71269630  1  -0.164094
  O  O204  1  0.92452530  0.88505220  0.43909810  1  -0.119282
  O  O205  1  0.45150110  0.75930196  0.37124620  1  -0.165819
  O  O206  1  0.96459400  0.97119080  0.42660367  1  -0.460589
  O  O207  1  0.41143245  0.67316330  0.38374066  1  -0.651400
  O  O208  1  0.05954108  0.97921850  0.38362190  1  -0.153231
  O  O209  1  0.31949034  0.66725934  0.43151456  1  -0.356499
  O  O210  1  0.22629600  0.87319434  0.44225505  1  -0.240849
  O  O211  1  0.14756684  0.77509140  0.37557070  1  -0.226505
  O  O212  1  0.21430193  0.70273435  0.44106424  1  -0.259126
  O  O213  1  0.16506577  0.94403136  0.37684910  1  -0.263277
  O  O214  1  0.52068040  0.65040946  0.41549320  1  -0.720137
  O  O215  1  0.88680170  0.95459260  0.36930397  1  -0.109257
  O  O216  1  0.82514894  0.00688720  0.35256413  1  -0.324306
  O  O217  1  0.51861715  0.67587304  0.48440096  1  -0.325911
  O  O218  1  0.47118834  0.63051360  0.30362797  1  -0.285937
  O  O219  1  0.39022310  0.57907020  0.30862630  1  -0.417705
  O  O220  1  0.42253146  0.57485530  0.50322604  1  -0.443134
  O  O221  1  0.46936140  0.50509060  0.50818820  1  -0.275790
  O  O222  1  0.45287147  0.67839850  0.08717144  1  -0.168959
  O  O223  1  0.41659766  0.49691656  0.10191309  1  -0.177757
  O  O224  1  0.40966374  0.46838180  0.72466743  1  -0.172220
  O  O225  1  0.47417150  0.64583280  0.70991653  1  -0.171189
  F  F226  1  0.70940460  0.37091600  0.37754837  1  -0.397013
  F  F227  1  0.67251724  0.27843732  0.46867624  1  -0.387382
  F  F228  1  0.82733285  0.11442076  0.58346087  1  -0.426227
  F  F229  1  0.04758525  0.02957687  0.22640717  1  -0.397725
  F  F230  1  0.86751604  0.09477738  0.23549128  1  -0.430243
  F  F231  1  0.00805473  0.05051671  0.57426035  1  -0.296820
  F  F232  1  0.38318133  0.81758710  0.33848363  1  -0.371696
  F  F233  1  0.99066790  0.82438530  0.46928670  1  -0.662241
  F  F234  1  0.09131222  0.78979120  0.46305212  1  -0.427330
  F  F235  1  0.28274230  0.85288930  0.34768382  1  -0.374871
  F  F236  1  0.53101903  0.62604797  0.22985017  1  -0.453126
  F  F237  1  0.33317816  0.57170550  0.23643255  1  -0.454966
  F  F238  1  0.36795723  0.59811217  0.57546000  1  -0.453238
  F  F239  1  0.52117336  0.49365228  0.58192630  1  -0.438520
