# generated using pymatgen
data_Zn4H40C50N6O11
_symmetry_space_group_name_H-M   'P 1'
_cell_length_a   21.99449000
_cell_length_b   22.18715000
_cell_length_c   22.24156000
_cell_angle_alpha   65.93783000
_cell_angle_beta   62.14130000
_cell_angle_gamma   80.72820000
_symmetry_Int_Tables_number   1
_chemical_formula_structural   Zn4H40C50N6O11
_chemical_formula_sum   'Zn8 H80 C100 N12 O22'
_cell_volume   8756.18694479
_cell_formula_units_Z   2
loop_
 _symmetry_equiv_pos_site_id
 _symmetry_equiv_pos_as_xyz
  1  'x, y, z'
loop_
 _atom_site_type_symbol
 _atom_site_label
 _atom_site_symmetry_multiplicity
 _atom_site_fract_x
 _atom_site_fract_y
 _atom_site_fract_z
 _atom_site_occupancy
  _atom_site_charge
  Zn  Zn0  1  0.27537698  0.53449833  0.11584037  1  1.173774
  Zn  Zn1  1  0.20711209  0.41306508  0.12718852  1  1.105951
  Zn  Zn2  1  0.34790060  0.39582350  0.13758157  1  1.164256
  Zn  Zn3  1  0.21178990  0.41354580  0.26814303  1  1.081683
  Zn  Zn4  1  0.82636464  0.94861800  0.69133450  1  1.093245
  Zn  Zn5  1  0.77761483  0.85904810  0.65407560  1  1.154599
  Zn  Zn6  1  0.67110956  0.94323623  0.73443030  1  1.048674
  Zn  Zn7  1  0.76688240  0.00955045  0.57843080  1  1.080558
  H  H8  1  0.45957205  0.16262102  0.41724930  1  0.019376
  H  H9  1  0.48799017  0.34964183  0.46695334  1  0.024342
  H  H10  1  0.58653920  0.21351212  0.38341680  1  0.018710
  H  H11  1  0.35967490  0.29944113  0.49905547  1  0.018147
  H  H12  1  0.40196720  0.16901590  0.55795926  1  0.034803
  H  H13  1  0.54491824  0.34360483  0.32503620  1  0.026226
  H  H14  1  0.29230990  0.23987690  0.30343133  1  0.731756
  H  H15  1  0.70509607  0.18242598  0.54004560  1  0.132600
  H  H16  1  0.54487220  0.31314590  0.16046996  1  -0.009373
  H  H17  1  0.51356830  0.37122497  0.20649807  1  0.003400
  H  H18  1  0.57675900  0.46310338  0.08887772  1  0.081842
  H  H19  1  0.63332190  0.39879915  0.11147904  1  0.056399
  H  H20  1  0.60865664  0.40635440  0.04196350  1  0.062507
  H  H21  1  0.46425202  0.08917306  0.64245033  1  -0.087159
  H  H22  1  0.45920518  0.12893987  0.70248700  1  -2.325791
  H  H23  1  0.38231665  0.03894434  0.81047530  1  0.059083
  H  H24  1  0.34901547  0.07292104  0.74355334  1  0.091826
  H  H25  1  0.39111537  0.99489766  0.75403850  1  -0.039524
  H  H26  1  0.39989236  0.27686998  0.96002036  1  0.008910
  H  H27  1  0.64649640  0.11207956  0.85369307  1  0.034099
  H  H28  1  0.33594757  0.31551316  0.06238031  1  -0.053405
  H  H29  1  0.70879155  0.08255449  0.74669630  1  0.057451
  H  H30  1  0.45950210  0.18214405  0.21632922  1  0.001524
  H  H31  1  0.40384212  0.07534412  0.29623760  1  0.030668
  H  H32  1  0.38717672  0.07255708  0.22553933  1  0.052825
  H  H33  1  0.33747673  0.12491656  0.27517176  1  0.004677
  H  H34  1  0.53825116  0.22690271  0.63863295  1  0.140546
  H  H35  1  0.47662255  0.14780530  0.63929933  1  -0.412045
  H  H36  1  0.44836473  0.13395564  0.73437846  1  0.626075
  H  H37  1  0.51199300  0.08181147  0.69288886  1  -0.914551
  H  H38  1  0.60703236  0.21469817  0.00019217  1  0.046506
  H  H39  1  0.58237010  0.18647577  0.09750223  1  0.049718
  H  H40  1  0.63792175  0.13832474  0.04520118  1  0.043987
  H  H41  1  0.51244706  0.09226771  0.12369919  1  0.038161
  H  H42  1  0.54495480  0.11068058  0.02915275  1  0.031586
  H  H43  1  0.54039970  0.29555544  0.79348475  1  0.064199
  H  H44  1  0.54645395  0.32436538  0.70294505  1  0.054966
  H  H45  1  0.46738112  0.33114946  0.77939490  1  0.050951
  H  H46  1  0.46314213  0.23931068  0.73987840  1  -0.015695
  H  H47  1  0.44227803  0.21307412  0.83361100  1  0.013542
  H  H48  1  0.09886810  0.56672720  0.38224754  1  -0.010336
  H  H49  1  0.93781670  0.80358976  0.43830540  1  0.040630
  H  H50  1  0.14452290  0.52502185  0.28395495  1  -0.034577
  H  H51  1  0.88822526  0.85113140  0.53404150  1  -0.089647
  H  H52  1  0.09397832  0.71959120  0.09951906  1  -0.186557
  H  H53  1  0.98382220  0.71261895  0.10552510  1  0.037633
  H  H54  1  0.94706310  0.67337370  0.20425697  1  0.093771
  H  H55  1  0.00275980  0.62794840  0.14803918  1  -3.132114
  H  H56  1  0.98993474  0.64989860  0.69319344  1  0.067363
  H  H57  1  0.88367593  0.59771180  0.79681176  1  0.052173
  H  H58  1  0.88644380  0.58556080  0.72021250  1  -0.155814
  H  H59  1  0.83631754  0.65033790  0.74851780  1  0.340861
  H  H60  1  0.08682159  0.78732120  0.27753484  1  -0.061490
  H  H61  1  0.09830987  0.81908920  0.18415620  1  0.339721
  H  H62  1  0.03170176  0.84950220  0.25109180  1  -0.683166
  H  H63  1  0.98852336  0.76812506  0.22140421  1  -0.005382
  H  H64  1  0.96270880  0.74797880  0.31525820  1  -0.005796
  H  H65  1  0.12026954  0.66808736  0.49096320  1  0.056465
  H  H66  1  0.09870791  0.66111064  0.58273154  1  0.053488
  H  H67  1  0.12259154  0.58919940  0.55925270  1  0.046461
  H  H68  1  0.99547230  0.58742136  0.63177705  1  -0.095796
  H  H69  1  0.01720288  0.59468860  0.54284500  1  0.027715
  H  H70  1  0.94533503  0.68210155  0.93405825  1  0.035079
  H  H71  1  0.08999079  0.85709780  0.88925050  1  0.028110
  H  H72  1  0.09071826  0.68489534  0.87130070  1  0.036395
  H  H73  1  0.94294230  0.85527825  0.95061160  1  0.027264
  H  H74  1  0.94035470  0.72023580  0.04321015  1  -0.007554
  H  H75  1  0.09401762  0.81943387  0.77914196  1  0.024173
  H  H76  1  0.77109590  0.80370530  0.83908963  1  0.769422
  H  H77  1  0.25418580  0.62817657  0.98507460  1  -0.001488
  H  H78  1  0.01820334  0.77567660  0.66979855  1  0.032614
  H  H79  1  0.03278163  0.84639020  0.68376964  1  0.028341
  H  H80  1  0.10300746  0.90313450  0.55003756  1  0.052307
  H  H81  1  0.13630587  0.82380617  0.58629054  1  0.047810
  H  H82  1  0.08941135  0.83342360  0.53477770  1  0.054920
  H  H83  1  0.99403775  0.62938770  0.13110244  1  0.032195
  H  H84  1  0.03134951  0.67471033  0.15969908  1  -1.832275
  H  H85  1  0.94443220  0.62361205  0.28727640  1  0.049568
  H  H86  1  0.90328210  0.66188070  0.22778738  1  0.019623
  H  H87  1  0.91008680  0.57319736  0.26264846  1  0.052477
  C  C88  1  0.42919838  0.32877702  0.16627644  1  0.019800
  C  C89  1  0.57603960  0.07754879  0.67222340  1  0.104101
  C  C90  1  0.53518360  0.23306307  0.40930500  1  -0.033125
  C  C91  1  0.41112176  0.27983910  0.47375180  1  -0.037775
  C  C92  1  0.46609768  0.20487814  0.42860565  1  -0.037946
  C  C93  1  0.48104438  0.30795458  0.45505676  1  -0.033505
  C  C94  1  0.40380470  0.29218352  0.29867047  1  -0.119532
  C  C95  1  0.56731224  0.17605604  0.56622094  1  -0.113217
  C  C96  1  0.51307360  0.30406207  0.37804540  1  -0.036131
  C  C97  1  0.43380898  0.20864604  0.50505230  1  -0.029787
  C  C98  1  0.44413470  0.27557305  0.39783890  1  -0.000491
  C  C99  1  0.50279015  0.23703110  0.48526580  1  -0.004093
  C  C100  1  0.41806015  0.28842783  0.34549785  1  -0.008478
  C  C101  1  0.53790130  0.20745789  0.53056157  1  0.024288
  C  C102  1  0.33630466  0.26298332  0.25126305  1  -3.270712
  C  C103  1  0.66994125  0.14364861  0.58767545  1  -0.640175
  C  C104  1  0.39309326  0.29166025  0.24096343  1  0.087578
  C  C105  1  0.60156650  0.13462100  0.60779950  1  -0.099934
  C  C106  1  0.52869450  0.36480767  0.15443489  1  0.110706
  C  C107  1  0.59066767  0.41118010  0.09541508  1  -0.203337
  C  C108  1  0.45999348  0.08103976  0.69700410  1  0.617564
  C  C109  1  0.39144933  0.04450095  0.75496644  1  -0.255661
  C  C110  1  0.52759570  0.71279323  0.87646174  1  0.028067
  C  C111  1  0.49471710  0.66792170  0.94965700  1  -0.137181
  C  C112  1  0.43319517  0.58395916  0.08661830  1  0.256398
  C  C113  1  0.58911747  0.79675585  0.73950050  1  0.287614
  C  C114  1  0.55570790  0.75115365  0.81387746  1  -0.205939
  C  C115  1  0.46660492  0.62956130  0.01224136  1  -0.128091
  C  C116  1  0.67531450  0.10345049  0.63710356  1  -0.242659
  C  C117  1  0.34395546  0.27290303  0.19272650  1  -0.379224
  C  C118  1  0.40934104  0.25640634  0.00755131  1  -0.046581
  C  C119  1  0.62643000  0.12551515  0.81479000  1  -0.043115
  C  C120  1  0.37253090  0.27713490  0.06665647  1  -0.015882
  C  C121  1  0.66137480  0.10815749  0.75365270  1  -0.071462
  C  C122  1  0.38269755  0.24861658  0.13039076  1  -0.091360
  C  C123  1  0.63637304  0.12431419  0.70161027  1  0.079368
  C  C124  1  0.43144330  0.19701776  0.13262796  1  0.027524
  C  C125  1  0.57571630  0.16207586  0.71104926  1  0.061972
  C  C126  1  0.47190207  0.18059957  0.07011044  1  -0.006525
  C  C127  1  0.54333687  0.18380764  0.77097590  1  -0.080526
  C  C128  1  0.45985790  0.20978639  0.00786305  1  -0.023670
  C  C129  1  0.56713130  0.16171390  0.82502730  1  0.011882
  C  C130  1  0.49892062  0.19230312  0.94378590  1  -0.037709
  C  C131  1  0.53117390  0.17735155  0.89068320  1  -0.024396
  C  C132  1  0.38926300  0.10529629  0.25133693  1  -0.112262
  C  C133  1  0.49329692  0.13292205  0.68326163  1  3.130750
  C  C134  1  0.53008884  0.13380750  0.06966054  1  -0.053091
  C  C135  1  0.59307146  0.17056748  0.05227387  1  -0.138170
  C  C136  1  0.48558924  0.23240443  0.77743846  1  -0.026051
  C  C137  1  0.51159626  0.29968762  0.76240724  1  -0.155099
  C  C138  1  0.88445740  0.80032930  0.67040780  1  0.901325
  C  C139  1  0.13606237  0.57720625  0.15463175  1  0.524468
  C  C140  1  0.08974842  0.59281130  0.33516900  1  0.051880
  C  C141  1  0.94196650  0.77870320  0.48897470  1  -0.127827
  C  C142  1  0.11548118  0.56953390  0.27844120  1  -0.188830
  C  C143  1  0.91339970  0.80505764  0.54380270  1  0.120163
  C  C144  1  0.10512409  0.60351140  0.21523628  1  0.238401
  C  C145  1  0.91553926  0.77137420  0.61148290  1  -0.359665
  C  C146  1  0.06690898  0.66290090  0.21123827  1  -0.782066
  C  C147  1  0.94727870  0.70861334  0.62274490  1  0.189609
  C  C148  1  0.04270419  0.68658450  0.26882356  1  0.261832
  C  C149  1  0.98039126  0.68464005  0.56485290  1  -0.101042
  C  C150  1  0.05346236  0.65044284  0.33135924  1  -0.152231
  C  C151  1  0.97622640  0.71965710  0.49834642  1  0.024835
  C  C152  1  0.02773590  0.67305230  0.39161660  1  0.027878
  C  C153  1  0.00481062  0.69442636  0.43991545  1  -0.067169
  C  C154  1  0.99354730  0.67708313  0.15225469  1  -0.148259
  C  C155  1  0.88467040  0.62320770  0.74187690  1  -0.102690
  C  C156  1  0.00858824  0.75241870  0.26254020  1  -0.262331
  C  C157  1  0.05950896  0.80510485  0.24259065  1  0.313825
  C  C158  1  0.01974427  0.62163220  0.57417320  1  -0.035969
  C  C159  1  0.09491607  0.63605880  0.55033640  1  -0.149259
  C  C160  1  0.95988023  0.06178897  0.57274670  1  0.296615
  C  C161  1  0.06255925  0.31628190  0.25108624  1  0.304625
  C  C162  1  0.04076226  0.26165316  0.31990725  1  -0.160361
  C  C163  1  0.02231459  0.21573190  0.37790203  1  0.063131
  C  C164  1  0.00060908  0.16210532  0.44572645  1  -0.101142
  C  C165  1  0.98195004  0.11626515  0.50379800  1  -0.245016
  C  C166  1  0.90885110  0.83072370  0.68256720  1  -0.289511
  C  C167  1  0.11441342  0.58264387  0.14355397  1  -0.078767
  C  C168  1  0.05721223  0.72353540  0.88899857  1  -0.055100
  C  C169  1  0.97672910  0.81660890  0.93335650  1  -0.053056
  C  C170  1  0.97817373  0.72161704  0.92401380  1  -0.044825
  C  C171  1  0.05681698  0.81822780  0.89871120  1  -0.065561
  C  C172  1  0.91180740  0.81568720  0.79930650  1  -0.158724
  C  C173  1  0.11796297  0.67133450  0.02498805  1  0.212369
  C  C174  1  0.05985752  0.79680710  0.83907056  1  -0.041291
  C  C175  1  0.97459460  0.74295690  0.98332113  1  -0.017478
  C  C176  1  0.98099260  0.79458840  0.87455900  1  -0.019217
  C  C177  1  0.05345167  0.74506146  0.94787580  1  0.011156
  C  C178  1  0.94165015  0.81129990  0.83375620  1  0.045969
  C  C179  1  0.09088399  0.70852890  0.98925490  1  -0.050657
  C  C180  1  0.80958366  0.80641085  0.78506535  1  -0.710306
  C  C181  1  0.21504174  0.60694640  0.04112303  1  0.173105
  C  C182  1  0.87944263  0.81378704  0.75811327  1  0.287475
  C  C183  1  0.14699227  0.62333080  0.06866765  1  -0.509912
  C  C184  1  0.02612217  0.83048500  0.64587400  1  -0.067208
  C  C185  1  0.09278978  0.84889220  0.57473767  1  -0.141726
  C  C186  1  0.00527965  0.62777200  0.17550564  1  5.378624
  C  C187  1  0.93654275  0.62099650  0.24260807  1  -0.194907
  N  N188  1  0.39465943  0.32216918  0.13296166  1  -0.302324
  N  N189  1  0.33715650  0.28181782  0.18556586  1  0.812875
  N  N190  1  0.68520270  0.09556653  0.63851620  1  0.337038
  N  N191  1  0.62769973  0.05521515  0.69112045  1  -0.146349
  N  N192  1  0.43981090  0.15863924  0.19734287  1  -0.159556
  N  N193  1  0.54778415  0.17786454  0.66045580  1  -0.641152
  N  N194  1  0.94403860  0.66854787  0.69303000  1  -0.150605
  N  N195  1  0.05247625  0.70033650  0.15031720  1  1.016637
  N  N196  1  0.85757550  0.83322060  0.66508780  1  -0.607623
  N  N197  1  0.79632103  0.81853276  0.72837610  1  -0.252768
  N  N198  1  0.22435533  0.55982363  0.09690380  1  -0.485808
  N  N199  1  0.16310093  0.54513590  0.16019190  1  -0.038341
  O  O200  1  0.47411925  0.38231617  0.13440032  1  -0.289831
  O  O201  1  0.51418006  0.04186836  0.70753140  1  0.100111
  O  O202  1  0.56276613  0.85296790  0.71940637  1  -0.364994
  O  O203  1  0.37743342  0.60003330  0.13199794  1  -0.333502
  O  O204  1  0.64487930  0.78068170  0.69412076  1  -0.353123
  O  O205  1  0.45954666  0.52774704  0.10671246  1  -0.300059
  O  O206  1  0.65723646  0.13320282  0.58215827  1  0.405944
  O  O207  1  0.36321020  0.24490567  0.24668169  1  2.277770
  O  O208  1  0.72477030  0.05846741  0.64015570  1  -0.500460
  O  O209  1  0.29567638  0.31964102  0.18868434  1  -0.475095
  O  O210  1  0.88613820  0.75954050  0.73341650  1  -0.482120
  O  O211  1  0.13542077  0.61873990  0.09119642  1  0.285521
  O  O212  1  0.85946620  0.86254495  0.65530820  1  -0.064699
  O  O213  1  0.16209279  0.51573545  0.16930474  1  -0.428864
  O  O214  1  0.99817260  0.01196176  0.57957834  1  -0.288303
  O  O215  1  0.90231070  0.06354352  0.62656360  1  -0.282294
  O  O216  1  0.12031408  0.31470970  0.19743152  1  -0.398045
  O  O217  1  0.02438494  0.36632520  0.24444777  1  -0.280631
  O  O218  1  0.26054394  0.43923518  0.16219005  1  -1.040758
  O  O219  1  0.76048720  0.94010690  0.66457260  1  -0.969062
  O  O220  1  0.97149960  0.86423516  0.63078180  1  -0.156337
  O  O221  1  0.04478187  0.57243290  0.19263100  1  -1.194278
