data_I
_chemical_name_common  'pretrained/mofdiff_ckpt/samples_5_seed_2024/cif/sample_0'
_cell_length_a 10.02736
_cell_length_b 15.01167
_cell_length_c 17.11449
_cell_angle_alpha 89.80122
_cell_angle_beta  90.22360
_cell_angle_gamma 88.49769
_space_group_name_H-M_alt      'P 1'


loop_
_space_group_symop_operation_xyz
  'x, y, z' 

loop_
_atom_site_label
_atom_site_fract_x
_atom_site_fract_y
_atom_site_fract_z
_atom_site_type_symbol
Zn0   0.22064374 0.5801869 0.5992432    Zn
Zn1   0.417618 0.43977228 0.53760487    Zn
H2    0.06789136 0.429636 0.6943102     H
H3    0.690195 0.5639248 0.45332792     H
C4    0.9656851 0.4479924 0.69631416     C
C5    0.9035021 0.4326139 0.76734126     C
C6    0.7707687 0.46059787 0.77350855     C
C7    0.6932294 0.45819807 0.70531785     C
C8    0.75112265 0.48435527 0.63283074     C
C9    0.8953483 0.48234218 0.63079387     C
C10   0.8868827 0.53970677 0.50351626     C
C11   0.74492675 0.53914124 0.50377053     C
N12   0.9632273 0.51020736 0.56603026     N
N13   0.6756202 0.51166606 0.56721455     N
N14   0.9689767 0.37767693 0.8267475     N
Cl15  0.9601525 0.5882159 0.42291966    Cl
Cl16  0.695112 0.46131158 0.86534053    Cl
Cl17  0.62591356 0.35228541 0.71134967    Cl
O18   0.08947694 0.34686112 0.81546575     O
O19   0.90106326 0.34027222 0.8819298     O
H20   0.19069535 0.59362227 0.32937306     H
H21   0.28050494 0.341222 0.81457275     H
H22   0.2238211 0.6276139 0.81004006     H
H23   0.5939711 0.48657194 0.3175918     H
H24   0.439554 0.5602039 0.049684927     H
H25   0.17756964 0.5956435 0.18732709     H
H26   0.22790213 0.6296168 0.9530325     H
C27   0.24837923 0.4815731 0.71612954     C
C28   0.3981395 0.5369372 0.41911298     C
C29   0.39248356 0.5380809 0.33370993     C
C30   0.27586323 0.569391 0.29616466     C
C31   0.26818922 0.57046336 0.21523261     C
C32   0.37533072 0.53767735 0.17055297     C
C33   0.49465612 0.50948405 0.20766716     C
C34   0.50280803 0.5099292 0.2891613     C
C35   0.27040356 0.40529844 0.9256362     C
C36   0.26784295 0.40443715 0.84434086     C
C37   0.23697364 0.56530285 0.8415904     C
C38   0.23906131 0.56648844 0.9229251     C
C39   0.25530374 0.4867401 0.9652631     C
C40   0.361181 0.5324452 0.08534717     C
C41   0.26046357 0.49010324 0.050690226     C
C42   0.25120568 0.48417848 0.80176044     C
Cl43  0.13788177 0.43285394 0.103790574    Cl
Cl44  0.63306737 0.4694508 0.15400164    Cl
Cl45       0.3 0.30368292 0.97540456    Cl
O46   0.24764234 0.4056082 0.68209934     O
O47   0.50980294 0.53774977 0.45491964     O
O48   0.24586351 0.554252 0.67598367     O
O49   0.29015175 0.5398247 0.45791522     O
H50   0.6657489 0.9110837 0.4911033     H
H51   0.4554036 0.19950439 0.47360435     H
H52   0.17468217 0.8177772 0.6577642     H
C53   0.6263266 0.7441594 0.54246217     C
C54   0.4125194 0.8156076 0.5894674     C
C55   0.5355354 0.82316375 0.55104405     C
C56   0.5711089 0.9061996 0.5207797     C
C57   0.48426974 0.98126376 0.5268213     C
C58   0.3607819 0.9731435 0.5661017     C
C59   0.32600692 0.89014685 0.59758556     C
C60   0.5170947 0.06413052 0.49409485     C
C61   0.42791978 0.1367529 0.49969617     C
C62   0.30629283 0.12977658 0.5393497     C
C63   0.2721108 0.047924846 0.5738605     C
C64   0.15048686 0.040843792 0.61613977     C
C65   0.11625592 0.9550739 0.6448519     C
C66   0.20394768 0.8821405 0.63568735     C
C67   0.21875861 0.2037833 0.5444117     C
C68   0.10076107 0.1996395 0.58807856     C
C69   0.07002139 0.119653516 0.6275672     C
C70   0.010766274 0.28003412 0.5924094     C
Cl71  0.9455761 0.12633166 0.7008406    Cl
Cl72  0.96088815 0.9284995 0.6857151    Cl
Cl73  0.6685045 0.08054974 0.44458696    Cl
O74   0.57020324 0.66670674 0.5363757     O
O75   0.75514364 0.7571367 0.5415594     O
O76   0.8802275 0.2655389 0.59117275     O
O77   0.06987989 0.35855454 0.59620345     O
F78   0.37814215 0.7360326 0.6207495     F
F79   0.24882486 0.28052506 0.50658566     F
loop_
_geom_bond_atom_site_label_1
_geom_bond_atom_site_label_2
_geom_bond_distance
_geom_bond_site_symmetry_2
_ccdc_geom_bond_type
Zn0   Zn1    3.04474       .     S
Zn0   N12    2.86778   1_455     S
Zn0   O48    1.38895       .     S
Zn0   O49    2.58930       .     S
Zn0   O74    3.92290       .     A
Zn0   O75    5.39575   1_455     A
Zn1   Zn0    3.04474       .     A
Zn1   N13    2.87307       .     A
Zn1   O46    3.05834       .     A
Zn1   O47    2.25551       .     A
Zn1   O76    5.33981       .     S
Zn1   O77    3.85907       .     S
H2    C4     1.05498   1_455     S
H3    C11    1.08086       .     S
C4    H2     1.05498   1_655     D
C4    C5     1.38970       .     S
C4    C9     1.41120       .     S
C5    C4     1.38970       .     S
C5    C6     1.38967       .     S
C5    N14    1.45101       .     D
C6    C5     1.38967       .     D
C6    C7     1.40090       .     S
C6    Cl16   1.74778       .     S
C7    C6     1.40090       .     A
C7    C8     1.42983       .     A
C7    Cl17   1.74637       .     A
C8    C7     1.42983       .     A
C8    C9     1.44629       .     A
C8    N13    1.40580       .     A
C9    C4     1.41120       .     S
C9    C8     1.44629       .     S
C9    N12    1.37273       .     S
C10   C11    1.42371       .     S
C10   N12    1.37817       .     D
C10   Cl15   1.73255       .     S
C11   H3     1.08086       .     S
C11   C10    1.42371       .     S
C11   N13    1.36010       .     S
N12   Zn0    2.86778   1_655     D
N12   C9     1.37273       .     D
N12   C10    1.37817       .     D
N13   Zn1    2.87307       .     S
N13   C8     1.40580       .     S
N13   C11    1.36010       .     A
N14   C5     1.45101       .     A
N14   O18    1.29784   1_655     S
N14   O19    1.30091       .     S
Cl15  C10    1.73255       .     A
Cl16  C6     1.74778       .     A
Cl17  C7     1.74637       .     S
O18   N14    1.29784   1_455     A
O19   N14    1.30091       .     A
H20   C30    1.08333       .     S
H21   C36    1.08340       .     S
H22   C37    1.08323       .     S
H23   C34    1.08345       .     S
H24   C40    1.08762       .     D
H25   C31    1.08352       .     S
H26   C38    1.08368       .     S
C27   C42    1.46637       .     A
C27   O46    1.28246       .     A
C27   O48    1.28697       .     S
C28   C29    1.46253       .     A
C28   O47    1.27468       .     A
C28   O49    1.27230       .     S
C29   C28    1.46253       .     A
C29   C30    1.40161       .     S
C29   C34    1.40286       .     A
C30   H20    1.08333       .     S
C30   C29    1.40161       .     D
C30   C31    1.38696       .     S
C31   H25    1.08352       .     D
C31   C30    1.38696       .     S
C31   C32    1.40088       .     S
C32   C31    1.40088       .     A
C32   C33    1.40709       .     A
C32   C40    1.46716       .     S
C33   C32    1.40709       .     S
C33   C34    1.39685       .     A
C33   Cl44   1.76098       .     A
C34   H23    1.08345       .     S
C34   C29    1.40286       .     A
C34   C33    1.39685       .     A
C35   C36    1.39158       .     S
C35   C39    1.40514       .     S
C35   Cl45   1.76231       .     S
C36   H21    1.08340       .     S
C36   C35    1.39158       .     D
C36   C42    1.40512       .     S
C37   H22    1.08323       .     S
C37   C38    1.39226       .     A
C37   C42    1.40197       .     A
C38   H26    1.08368       .     S
C38   C37    1.39226       .     A
C38   C39    1.40271       .     A
C39   C35    1.40514       .     S
C39   C38    1.40271       .     A
C39   C41    1.46385   1_556     S
C40   H24    1.08762       .     A
C40   C32    1.46716       .     S
C40   C41    1.34439       .     D
C41   C39    1.46385   1_554     S
C41   C40    1.34439       .     D
C41   Cl43   1.77032       .     S
C42   C27    1.46637       .     S
C42   C36    1.40512       .     S
C42   C37    1.40197       .     A
Cl43  C41    1.77032       .     A
Cl44  C33    1.76098       .     A
Cl45  C35    1.76231       .     S
O46   Zn1    3.05834       .     S
O46   C27    1.28246       .     A
O47   Zn1    2.25551       .     A
O47   C28    1.27468       .     A
O48   Zn0    1.38895       .     A
O48   C27    1.28697       .     A
O49   Zn0    2.58930       .     A
O49   C28    1.27230       .     A
H50   C56    1.08216       .     S
H51   C61    1.08369       .     A
H52   C66    1.08426       .     S
C53   C55    1.48411       .     A
C53   O74    1.30924       .     A
C53   O75    1.31149       .     A
C54   C55    1.40714       .     A
C54   C59    1.40536       .     A
C54   F78    1.36052       .     S
C55   C53    1.48411       .     A
C55   C54    1.40714       .     S
C55   C56    1.40342       .     A
C56   H50    1.08216       .     A
C56   C55    1.40342       .     S
C56   C57    1.41023       .     S
C57   C56    1.41023       .     D
C57   C58    1.41913       .     S
C57   C60    1.40981   1_565     D
C58   C57    1.41913       .     S
C58   C59    1.40849       .     S
C58   C63    1.42057   1_565     S
C59   C54    1.40536       .     A
C59   C58    1.40849       .     A
C59   C66    1.39681       .     A
C60   C57    1.40982   1_545     S
C60   C61    1.39554       .     S
C60   Cl73   1.76407       .     A
C61   H51    1.08369       .     A
C61   C60    1.39554       .     A
C61   C62    1.40414       .     A
C62   C61    1.40414       .     A
C62   C63    1.41235       .     A
C62   C67    1.40082       .     A
C63   C58    1.42057   1_545     S
C63   C62    1.41235       .     A
C63   C64    1.42667       .     S
C64   C63    1.42667       .     A
C64   C65    1.42729   1_545     A
C64   C69    1.42888       .     A
C65   C64    1.42729   1_565     A
C65   C66    1.39581       .     A
C65   Cl72   1.76480   1_455     S
C66   H52    1.08426       .     A
C66   C59    1.39681       .     S
C66   C65    1.39581       .     A
C67   C62    1.40082       .     A
C67   C68    1.40456       .     S
C67   F79    1.36077       .     S
C68   C67    1.40456       .     D
C68   C69    1.41735       .     S
C68   C70    1.49009       .     S
C69   C64    1.42888       .     S
C69   C68    1.41735       .     S
C69   Cl71   1.77379   1_455     S
C70   C68    1.49009       .     S
C70   O76    1.33264   1_455     S
C70   O77    1.33485       .     S
Cl71  C69    1.77379   1_655     S
Cl72  C65    1.76480   1_655     S
Cl73  C60    1.76407       .     S
O74   Zn0    3.92290       .     S
O74   C53    1.30924       .     S
O75   Zn0    5.39575   1_655     S
O75   C53    1.31149       .     S
O76   Zn1    5.33981       .     S
O76   C70    1.33264   1_655     S
O77   Zn1    3.85907       .     S
O77   C70    1.33485       .     S
F78   C54    1.36052       .     S
F79   C67    1.36077       .     S
