# generated using pymatgen
data_Zn2H23C50Br5N7ClO20
_symmetry_space_group_name_H-M   'P 1'
_cell_length_a   10.22228000
_cell_length_b   12.48290000
_cell_length_c   24.77245000
_cell_angle_alpha   91.81921000
_cell_angle_beta   91.69345000
_cell_angle_gamma   92.25054000
_symmetry_Int_Tables_number   1
_chemical_formula_structural   Zn2H23C50Br5N7ClO20
_chemical_formula_sum   'Zn2 H23 C50 Br5 N7 Cl1 O20'
_cell_volume   3155.52450685
_cell_formula_units_Z   1
loop_
 _symmetry_equiv_pos_site_id
 _symmetry_equiv_pos_as_xyz
  1  'x, y, z'
loop_
 _atom_site_type_symbol
 _atom_site_label
 _atom_site_symmetry_multiplicity
 _atom_site_fract_x
 _atom_site_fract_y
 _atom_site_fract_z
 _atom_site_occupancy
  _atom_site_charge
  Zn  Zn0  1  0.60949016  0.60141736  0.09889637  1  1.323749
  Zn  Zn1  1  0.76879560  0.80117960  0.06842653  1  1.316870
  H  H2  1  0.25751240  0.63519170  0.15457194  1  0.077559
  H  H3  1  0.11785737  0.82752013  0.12634604  1  0.078118
  H  H4  1  0.43296105  0.81356174  0.02852948  1  0.075549
  H  H5  1  0.25827482  0.79135610  0.02229977  1  0.077444
  H  H6  1  0.32901970  0.88593840  0.07308674  1  0.078438
  H  H7  1  0.94021165  0.54096380  0.05076760  1  0.155870
  H  H8  1  0.11593681  0.55164665  0.05240129  1  0.127155
  H  H9  1  0.02867209  0.52379830  0.11353652  1  0.103362
  H  H10  1  0.72851350  0.90591400  0.96976060  1  0.102312
  H  H11  1  0.79961145  0.27665950  0.95750230  1  0.063768
  H  H12  1  0.64895093  0.02572152  0.12534260  1  0.015581
  H  H13  1  0.66389790  0.50032616  0.19741255  1  0.091038
  H  H14  1  0.67290910  0.16075113  0.18020940  1  0.089544
  H  H15  1  0.98745686  0.12616260  0.95151037  1  0.044384
  H  H16  1  0.95734227  0.08421017  0.88220320  1  0.069129
  H  H17  1  0.94732340  0.98555267  0.93307230  1  0.076482
  H  H18  1  0.52117300  0.35865256  0.95948570  1  0.054187
  H  H19  1  0.66195990  0.37663886  0.91613925  1  0.117190
  H  H20  1  0.56605744  0.48617223  0.93226220  1  0.168402
  H  H21  1  0.88439715  0.50796914  0.52880174  1  0.102758
  H  H22  1  0.45678660  0.63094550  0.37989940  1  0.112361
  H  H23  1  0.83674186  0.73598340  0.27086467  1  0.071764
  H  H24  1  0.76416284  0.88677100  0.78626245  1  0.112361
  C  C25  1  0.91386530  0.74879710  0.07196935  1  0.178954
  C  C26  1  0.45901042  0.65213865  0.09404427  1  0.250147
  C  C27  1  0.02466037  0.68765600  0.08935350  1  0.052182
  C  C28  1  0.34695643  0.71938586  0.09170626  1  -0.011855
  C  C29  1  0.12283424  0.74220234  0.11673845  1  -0.066687
  C  C30  1  0.24903803  0.69628610  0.12469546  1  -0.005426
  C  C31  1  0.34153998  0.80779020  0.05157507  1  -0.145314
  C  C32  1  0.02766394  0.56909096  0.07571646  1  -0.300845
  C  C33  1  0.75659100  0.07614140  0.98029304  1  0.134125
  C  C34  1  0.67254555  0.42974300  0.17155637  1  -0.048968
  C  C35  1  0.66624980  0.32876260  0.19380700  1  0.193390
  C  C36  1  0.67583900  0.23699915  0.16086993  1  -0.111953
  C  C37  1  0.69270380  0.24469653  0.10490230  1  0.057815
  C  C38  1  0.69839066  0.35015857  0.08306416  1  0.009814
  C  C39  1  0.70299554  0.15117358  0.06971956  1  -0.060440
  C  C40  1  0.74359350  0.16453527  0.01623972  1  -0.005479
  C  C41  1  0.76357156  0.26629093  0.99769694  1  -0.014539
  C  C42  1  0.71566576  0.35445324  0.02554459  1  0.073303
  C  C43  1  0.67592967  0.04430677  0.08487839  1  0.107781
  C  C44  1  0.72106730  0.97465790  0.99702585  1  -0.060312
  C  C45  1  0.92711574  0.07017291  0.92410916  1  -0.001770
  C  C46  1  0.60544676  0.41266382  0.94915820  1  -0.003818
  C  C47  1  0.73139256  0.74460137  0.95815740  1  0.340504
  C  C48  1  0.60761863  0.77374244  0.69856906  1  0.210381
  C  C49  1  0.78352430  0.65449584  0.69538520  1  0.220532
  C  C50  1  0.76745330  0.64102840  0.63856983  1  -0.082276
  C  C51  1  0.67969030  0.70792960  0.61126200  1  0.063235
  C  C52  1  0.60064435  0.77674910  0.64136310  1  -0.070034
  C  C53  1  0.83782357  0.56528056  0.60803664  1  0.126448
  C  C54  1  0.82974190  0.56567890  0.55155960  1  -0.046875
  C  C55  1  0.74876857  0.63541025  0.52423940  1  -0.019967
  C  C56  1  0.67156994  0.70611286  0.55385154  1  0.029608
  C  C57  1  0.58670250  0.77435464  0.52603394  1  -0.058763
  C  C58  1  0.50773495  0.84345150  0.55678540  1  0.099397
  C  C59  1  0.51604010  0.84512120  0.61364320  1  0.090209
  C  C60  1  0.74109920  0.63329800  0.46751103  1  0.192050
  C  C61  1  0.58555150  0.77063840  0.46848062  1  0.206107
  C  C62  1  0.53977364  0.65419680  0.35606533  1  -0.110489
  C  C63  1  0.52986660  0.64213170  0.29976028  1  0.168824
  C  C64  1  0.63857510  0.66965530  0.26810983  1  -0.087985
  C  C65  1  0.75344390  0.71302795  0.29457507  1  0.012095
  C  C66  1  0.76246140  0.72825664  0.35117860  1  0.040880
  C  C67  1  0.65477090  0.69599200  0.38233426  1  0.127468
  C  C68  1  0.68121845  0.62792130  0.81313694  1  0.012392
  C  C69  1  0.69300420  0.63432240  0.87021327  1  0.174082
  C  C70  1  0.72471446  0.73455190  0.89763194  1  -0.153913
  C  C71  1  0.74898180  0.82586175  0.86599950  1  0.182601
  C  C72  1  0.74408275  0.81645210  0.80966717  1  -0.131777
  C  C73  1  0.70938420  0.71901980  0.78273630  1  0.139560
  C  C74  1  0.63486990  0.65602210  0.20803470  1  0.285065
  Br  Br75  1  0.61975800  0.49607724  0.77630440  1  -0.133745
  Br  Br76  1  0.67271210  0.50280380  0.90886130  1  -0.355676
  Br  Br77  1  0.78146195  0.96909800  0.89578220  1  -0.269637
  Br  Br78  1  0.38397402  0.93865234  0.52488810  1  -0.118988
  Br  Br79  1  0.36167526  0.59406080  0.26949093  1  -0.186411
  N  N80  1  0.68420280  0.96064180  0.04828328  1  -0.227542
  N  N81  1  0.68819820  0.44079083  0.11777657  1  -0.179114
  N  N82  1  0.69916900  0.71465254  0.72422410  1  -0.168856
  N  N83  1  0.66185230  0.70106060  0.44081232  1  -0.160998
  N  N84  1  0.88011250  0.77733910  0.37609404  1  -0.007158
  N  N85  1  0.90837336  0.48121830  0.63289760  1  -0.032921
  N  N86  1  0.44108610  0.92072403  0.64287990  1  -0.012645
  Cl  Cl87  1  0.64636046  0.31718725  0.26351630  1  -0.286755
  O  O88  1  0.93441740  0.84954554  0.06484019  1  -0.411864
  O  O89  1  0.43867980  0.55034260  0.09826223  1  -0.377836
  O  O90  1  0.79823060  0.70406420  0.06778427  1  -0.754905
  O  O91  1  0.57486660  0.69582400  0.09531815  1  -0.778348
  O  O92  1  0.79259115  0.08948285  0.92746970  1  -0.120213
  O  O93  1  0.68661560  0.44180676  0.99522984  1  -0.160009
  O  O94  1  0.81090814  0.81753900  0.98062830  1  -0.333425
  O  O95  1  0.65791833  0.68004864  0.98560370  1  -0.254625
  O  O96  1  0.52343196  0.82875380  0.72863680  1  -0.150596
  O  O97  1  0.88486594  0.61110866  0.72166140  1  -0.145525
  O  O98  1  0.81211376  0.56352160  0.43908060  1  -0.149911
  O  O99  1  0.51058280  0.83620510  0.43992424  1  -0.140460
  O  O100  1  0.55786590  0.58135420  0.18577105  1  -0.304821
  O  O101  1  0.71085185  0.71885180  0.18082386  1  -0.290019
  O  O102  1  0.87594800  0.83275270  0.42135704  1  -0.065414
  O  O103  1  0.99028146  0.77546950  0.35110515  1  -0.070503
  O  O104  1  0.85511136  0.42700294  0.67106400  1  -0.049364
  O  O105  1  0.00889146  0.44205250  0.60932160  1  -0.066943
  O  O106  1  0.49443700  0.01312935  0.65878654  1  -0.065535
  O  O107  1  0.31725293  0.90038633  0.65013240  1  -0.054084
