# generated using pymatgen
data_Zn6H39C70S4N3O42F
_symmetry_space_group_name_H-M   'P 1'
_cell_length_a   23.36688000
_cell_length_b   27.07329000
_cell_length_c   31.91572000
_cell_angle_alpha   90.25124000
_cell_angle_beta   90.20758000
_cell_angle_gamma   86.53960000
_symmetry_Int_Tables_number   1
_chemical_formula_structural   Zn6H39C70S4N3O42F
_chemical_formula_sum   'Zn12 H78 C140 S8 N6 O84 F2'
_cell_volume   20153.34910733
_cell_formula_units_Z   2
loop_
 _symmetry_equiv_pos_site_id
 _symmetry_equiv_pos_as_xyz
  1  'x, y, z'
loop_
 _atom_site_type_symbol
 _atom_site_label
 _atom_site_symmetry_multiplicity
 _atom_site_fract_x
 _atom_site_fract_y
 _atom_site_fract_z
 _atom_site_occupancy
  _atom_site_charge
  Zn  Zn0  1  0.83648574  0.42638296  0.33860820  1  1.157802
  Zn  Zn1  1  0.71186530  0.43934590  0.35815760  1  1.122833
  Zn  Zn2  1  0.06286967  0.68189800  0.05909691  1  1.290106
  Zn  Zn3  1  0.98482543  0.69042470  0.13132942  1  1.152668
  Zn  Zn4  1  0.31750810  0.92982286  0.31392205  1  1.096653
  Zn  Zn5  1  0.23240273  0.93342120  0.38277608  1  1.105225
  Zn  Zn6  1  0.45731318  0.19631943  0.62021370  1  1.071638
  Zn  Zn7  1  0.57048500  0.16014087  0.58634424  1  1.095072
  Zn  Zn8  1  0.22840877  0.48597282  0.85589210  1  1.113671
  Zn  Zn9  1  0.29552117  0.38674462  0.83591700  1  1.094439
  Zn  Zn10  1  0.74719040  0.97512500  0.82238865  1  1.169868
  Zn  Zn11  1  0.77797110  0.89852756  0.88554800  1  1.185761
  H  H12  1  0.73409910  0.80408490  0.02923596  1  0.168517
  H  H13  1  0.92579030  0.76061314  0.96261190  1  0.044435
  H  H14  1  0.87446890  0.82672040  0.03337467  1  0.096109
  H  H15  1  0.90873796  0.82240397  0.90397185  1  0.068739
  H  H16  1  0.53107150  0.92770183  0.50742406  1  0.149541
  H  H17  1  0.55931056  0.02460548  0.38250113  1  0.172474
  H  H18  1  0.39710960  0.10855164  0.47836882  1  0.085957
  H  H19  1  0.34320098  0.03540228  0.46718144  1  0.049384
  H  H20  1  0.10994906  0.18712160  0.39194527  1  0.045838
  H  H21  1  0.01960660  0.99957470  0.32018390  1  0.037543
  H  H22  1  0.96822880  0.17408487  0.24103937  1  0.076489
  H  H23  1  0.88283175  0.17349337  0.19510148  1  0.036174
  H  H24  1  0.78558270  0.17444122  0.22598818  1  0.043883
  H  H25  1  0.77363660  0.17584157  0.30314213  1  0.036859
  H  H26  1  0.85861520  0.17607537  0.34955058  1  0.059696
  H  H27  1  0.96522080  0.27385697  0.43073818  1  0.029282
  H  H28  1  0.98602784  0.35089466  0.46793526  1  0.025353
  H  H29  1  0.07604767  0.39174497  0.45382988  1  0.043596
  H  H30  1  0.14545955  0.35544235  0.40201360  1  0.037058
  H  H31  1  0.12516263  0.27872768  0.36406150  1  0.047694
  H  H32  1  0.45667310  0.77447490  0.72463703  1  0.042181
  H  H33  1  0.40217403  0.69914824  0.72357756  1  0.037445
  H  H34  1  0.41146290  0.63993370  0.78047170  1  0.053829
  H  H35  1  0.50015060  0.58633920  0.91671705  1  0.066817
  H  H36  1  0.55973816  0.60008910  0.97575390  1  0.044885
  H  H37  1  0.68597054  0.70908433  0.02303660  1  0.159228
  H  H38  1  0.52004870  0.79105620  0.78264280  1  0.063156
  H  H39  1  0.05759500  0.17854114  0.78228325  1  0.050794
  H  H40  1  0.07197636  0.14587015  0.90445630  1  0.065363
  H  H41  1  0.02213077  0.10063592  0.83371836  1  0.055948
  H  H42  1  0.91824335  0.27548075  0.70922637  1  0.071020
  H  H43  1  0.89691764  0.32278150  0.74737096  1  0.079912
  H  H44  1  0.95856720  0.32995400  0.71455455  1  0.065210
  H  H45  1  0.98895216  0.30494606  0.78628314  1  0.089935
  H  H46  1  0.01020580  0.25787434  0.74838420  1  0.035334
  H  H47  1  0.92501130  0.21043290  0.76726836  1  0.062560
  H  H48  1  0.90283580  0.25742185  0.80505570  1  0.085237
  H  H49  1  0.92708620  0.25441197  0.00319076  1  0.072570
  H  H50  1  0.95462900  0.19292988  0.01803195  1  0.069167
  H  H51  1  0.99566160  0.24584098  0.02916420  1  0.069126
  H  H52  1  0.03606967  0.19915622  0.96794564  1  0.025444
  H  H53  1  0.00863096  0.26030410  0.95323014  1  0.042607
  H  H54  1  0.91726660  0.22470060  0.92749510  1  0.069537
  H  H55  1  0.94557756  0.16371366  0.94204944  1  0.059750
  H  H56  1  0.86436430  0.63127506  0.19911055  1  0.094288
  H  H57  1  0.94821760  0.48660610  0.25554950  1  0.094918
  H  H58  1  0.22907685  0.55644083  0.97540146  1  0.106872
  H  H59  1  0.04554165  0.56453760  0.96545820  1  0.129004
  H  H60  1  0.25938883  0.68626150  0.20631544  1  0.167593
  H  H61  1  0.18455160  0.86129390  0.23595779  1  0.023412
  H  H62  1  0.20501035  0.76231563  0.28224970  1  0.100276
  H  H63  1  0.08504499  0.84637296  0.20907560  1  0.068742
  H  H64  1  0.54959196  0.76473840  0.36790326  1  0.056372
  H  H65  1  0.33791354  0.70768905  0.27382746  1  0.178626
  H  H66  1  0.44327042  0.57496060  0.38049310  1  0.055046
  H  H67  1  0.42132705  0.48819578  0.36652124  1  0.038538
  H  H68  1  0.46347650  0.44356350  0.30491844  1  0.040288
  H  H69  1  0.52771910  0.48588660  0.25699136  1  0.034434
  H  H70  1  0.54978096  0.57277770  0.27033090  1  0.053076
  H  H71  1  0.68434304  0.67080970  0.32233750  1  0.058273
  H  H72  1  0.78022050  0.68847257  0.34915456  1  0.048231
  H  H73  1  0.79062754  0.72814530  0.41867480  1  0.041109
  H  H74  1  0.70461196  0.74998100  0.46169978  1  0.037847
  H  H75  1  0.60834390  0.73207530  0.43569900  1  0.047544
  H  H76  1  0.33678594  0.27985168  0.77759420  1  0.078292
  H  H77  1  0.40483636  0.30485967  0.65046140  1  0.028992
  H  H78  1  0.28804716  0.43391100  0.67987330  1  0.157209
  H  H79  1  0.44338056  0.33674395  0.82535600  1  0.150784
  H  H80  1  0.53124390  0.35307702  0.44425425  1  0.056722
  H  H81  1  0.43479514  0.37157010  0.41504320  1  0.031982
  H  H82  1  0.40957043  0.33958670  0.34484375  1  0.041943
  H  H83  1  0.48048013  0.28603130  0.30520520  1  0.031443
  H  H84  1  0.57727593  0.26737913  0.33380532  1  0.047551
  H  H85  1  0.68862605  0.32037348  0.44482583  1  0.048460
  H  H86  1  0.58619463  0.25863066  0.47005448  1  0.025301
  H  H87  1  0.67860930  0.31414142  0.51637405  1  0.083061
  H  H88  1  0.72605690  0.03180808  0.71636080  1  0.094305
  H  H89  1  0.54256430  0.09016352  0.74559560  1  0.151326
  C  C90  1  0.86387426  0.82496020  0.91315500  1  -0.070281
  C  C91  1  0.94899833  0.77394474  0.04314125  1  0.307328
  C  C92  1  0.84935975  0.80994570  0.95169604  1  -0.053703
  C  C93  1  0.90296155  0.79898214  0.01827526  1  -0.147390
  C  C94  1  0.89541200  0.78677700  0.97790647  1  0.044022
  C  C95  1  0.82373714  0.85140955  0.88464993  1  0.127679
  C  C96  1  0.33999696  0.99369060  0.40920466  1  -0.000346
  C  C97  1  0.46157312  0.11689557  0.52645320  1  0.363930
  C  C98  1  0.45245153  0.04401436  0.48062915  1  0.041806
  C  C99  1  0.42681983  0.02386256  0.44277182  1  -0.050258
  C  C100  1  0.43305543  0.08917232  0.49421300  1  -0.167883
  C  C101  1  0.36945720  0.02076852  0.44138500  1  -0.048657
  C  C102  1  0.18192568  0.02435947  0.36376178  1  0.146059
  C  C103  1  0.97054297  0.17635785  0.32615888  1  -0.036663
  C  C104  1  0.98087500  0.22112624  0.34724298  1  -0.063963
  C  C105  1  0.03108169  0.22473356  0.37151840  1  0.002297
  C  C106  1  0.07097197  0.18412475  0.37377840  1  -0.035832
  C  C107  1  0.06103569  0.13950628  0.35360600  1  -0.015053
  C  C108  1  0.01000683  0.13457483  0.33035257  1  0.100200
  C  C109  1  0.94071376  0.26384354  0.34272790  1  0.063349
  C  C110  1  0.10447209  0.09932761  0.35723630  1  0.050205
  C  C111  1  0.14026640  0.06542302  0.36029354  1  -0.048561
  C  C112  1  0.90665530  0.29891700  0.33927098  1  -0.088486
  C  C113  1  0.86551720  0.34025148  0.33557630  1  0.245270
  C  C114  1  0.91949690  0.17465957  0.29856494  1  0.065761
  C  C115  1  0.92593974  0.17416361  0.25483720  1  -0.056825
  C  C116  1  0.87770550  0.17394824  0.22878768  1  -0.001194
  C  C117  1  0.82286040  0.17450792  0.24620387  1  -0.040195
  C  C118  1  0.81614333  0.17524336  0.28971350  1  -0.003183
  C  C119  1  0.86426090  0.17534049  0.31588210  1  -0.052250
  C  C120  1  0.04341818  0.27085050  0.39430037  1  0.015243
  C  C121  1  0.00450796  0.29153183  0.42397660  1  -0.029848
  C  C122  1  0.01623897  0.33506867  0.44523700  1  -0.008098
  C  C123  1  0.06700052  0.35807630  0.43731245  1  -0.041963
  C  C124  1  0.10614862  0.33758350  0.40811750  1  -0.015218
  C  C125  1  0.09456243  0.29407346  0.38674656  1  -0.046844
  C  C126  1  0.55574286  0.62854970  0.95197344  1  0.021226
  C  C127  1  0.58392304  0.67221100  0.95643467  1  -0.075357
  C  C128  1  0.57755490  0.70889140  0.92482710  1  0.004502
  C  C129  1  0.43580607  0.67261010  0.78263200  1  -0.048945
  C  C130  1  0.47220883  0.68110450  0.81723020  1  0.045803
  C  C131  1  0.50311670  0.72425747  0.81810670  1  0.033651
  C  C132  1  0.44685417  0.60224480  0.84915520  1  0.287243
  C  C133  1  0.57126796  0.77792495  0.85154030  1  0.277623
  C  C134  1  0.49704307  0.75759894  0.78392740  1  -0.043066
  C  C135  1  0.46086020  0.74852750  0.75033890  1  -0.020745
  C  C136  1  0.43021040  0.70617000  0.74973226  1  -0.019588
  C  C137  1  0.61910610  0.67837226  0.99506176  1  0.320196
  C  C138  1  0.47890106  0.64695390  0.85031414  1  -0.094792
  C  C139  1  0.60028815  0.75649554  0.93384814  1  0.115158
  C  C140  1  0.51533276  0.65558270  0.88481920  1  0.058634
  C  C141  1  0.54482290  0.69991654  0.88735384  1  0.019872
  C  C142  1  0.53942657  0.73332130  0.85267156  1  -0.072963
  C  C143  1  0.52160317  0.62063974  0.91741294  1  -0.065061
  C  C144  1  0.22162072  0.26497740  0.85517580  1  0.296931
  C  C145  1  0.80203190  0.11231802  0.84701866  1  0.268674
  C  C146  1  0.97888330  0.21271156  0.82215697  1  0.088746
  C  C147  1  0.98672070  0.19490163  0.88877124  1  0.050595
  C  C148  1  0.03664815  0.18331593  0.81332415  1  -0.043185
  C  C149  1  0.04454617  0.16535182  0.88050060  1  -0.136999
  C  C150  1  0.16620825  0.24485898  0.85410416  1  -0.025443
  C  C151  1  0.85741240  0.13250810  0.84810570  1  -0.113486
  C  C152  1  0.00542857  0.23678102  0.86064540  1  -1.158340
  C  C153  1  0.06275219  0.20791706  0.85222554  1  0.285707
  C  C154  1  0.96035380  0.17043969  0.85021067  1  -0.077760
  C  C155  1  0.01761176  0.14064321  0.84160876  1  -0.056209
  C  C156  1  0.11957230  0.22810520  0.85324085  1  -0.041797
  C  C157  1  0.90388036  0.14952642  0.84903400  1  0.063906
  C  C158  1  0.94050825  0.23877756  0.78915490  1  -0.113543
  C  C159  1  0.97286580  0.27672356  0.76456153  1  0.001598
  C  C160  1  0.93407440  0.30277386  0.73192490  1  -0.170418
  C  C161  1  0.95725160  0.20077199  0.93131970  1  -0.133847
  C  C162  1  0.99634980  0.22342499  0.96391445  1  0.019096
  C  C163  1  0.96639967  0.22946040  0.00616312  1  -0.179003
  C  C164  1  0.87031440  0.47744250  0.29142565  1  0.234078
  C  C165  1  0.94212750  0.64022570  0.16303584  1  0.184648
  C  C166  1  0.90702564  0.50487540  0.26324078  1  -0.112277
  C  C167  1  0.90544903  0.61289316  0.19130400  1  -0.093756
  C  C168  1  0.88907280  0.54823920  0.24440047  1  0.083944
  C  C169  1  0.92330800  0.56943670  0.21003525  1  0.090702
  C  C170  1  0.04129156  0.62971056  0.00583506  1  0.415578
  C  C171  1  0.23527418  0.50164290  0.92516800  1  0.294717
  C  C172  1  0.07016249  0.59438926  0.97713850  1  -0.182116
  C  C173  1  0.20666884  0.54222256  0.94847130  1  -0.172493
  C  C174  1  0.12528613  0.59791680  0.96566960  1  0.111465
  C  C175  1  0.15321441  0.56009700  0.93855050  1  0.085415
  C  C176  1  0.10337652  0.81223667  0.19522650  1  -0.119956
  C  C177  1  0.23785481  0.83196950  0.30586347  1  0.330927
  C  C178  1  0.15414357  0.79270440  0.20951760  1  -0.023952
  C  C179  1  0.20737584  0.80150884  0.27596372  1  -0.165319
  C  C180  1  0.18421687  0.82160540  0.24096562  1  0.042332
  C  C181  1  0.06685685  0.78650886  0.16608885  1  0.315058
  C  C182  1  0.36664543  0.83757854  0.33650124  1  0.256128
  C  C183  1  0.51211420  0.63175890  0.33511645  1  0.027382
  C  C184  1  0.56771710  0.64050454  0.35018710  1  -0.035529
  C  C185  1  0.58142920  0.68885106  0.36153677  1  0.021048
  C  C186  1  0.53930370  0.72770350  0.35861588  1  -0.065244
  C  C187  1  0.48448810  0.71977943  0.34329218  1  0.035915
  C  C188  1  0.47051993  0.67191100  0.33033916  1  -0.067682
  C  C189  1  0.61002946  0.59942830  0.35528362  1  0.051512
  C  C190  1  0.44321916  0.76177400  0.34145188  1  0.041246
  C  C191  1  0.40853903  0.79663550  0.33950648  1  -0.063190
  C  C192  1  0.64515660  0.56514620  0.35882908  1  -0.083076
  C  C193  1  0.68702740  0.52432853  0.36233467  1  0.233207
  C  C194  1  0.49766704  0.58016630  0.32617640  1  0.025306
  C  C195  1  0.46158502  0.55588180  0.35333547  1  -0.037446
  C  C196  1  0.44921792  0.50677586  0.34555990  1  -0.012097
  C  C197  1  0.47300935  0.48159620  0.31083196  1  -0.033833
  C  C198  1  0.50918510  0.50549126  0.28378668  1  -0.017135
  C  C199  1  0.52155870  0.55462927  0.29138360  1  -0.040363
  C  C200  1  0.63925110  0.69968310  0.37724770  1  0.015434
  C  C201  1  0.68826740  0.68776740  0.35294080  1  -0.040894
  C  C202  1  0.74264467  0.69788770  0.36794975  1  -0.015746
  C  C203  1  0.74851125  0.72028553  0.40712170  1  -0.034686
  C  C204  1  0.70000510  0.73262490  0.43136227  1  -0.017186
  C  C205  1  0.64553970  0.72252107  0.41649497  1  -0.044973
  C  C206  1  0.27560583  0.34329668  0.77837926  1  0.240383
  C  C207  1  0.48468402  0.27059150  0.67235890  1  0.110943
  C  C208  1  0.42940944  0.29859713  0.67878090  1  -0.084703
  C  C209  1  0.31688440  0.30841058  0.75758666  1  -0.119535
  C  C210  1  0.40537485  0.30686635  0.71678700  1  -0.015304
  C  C211  1  0.34232485  0.31996370  0.72156320  1  -0.003808
  C  C212  1  0.64729697  0.35002464  0.37423643  1  0.339356
  C  C213  1  0.63693600  0.25277590  0.54396564  1  0.341039
  C  C214  1  0.64298160  0.29040295  0.51264393  1  -0.163892
  C  C215  1  0.62279520  0.31265217  0.40064615  1  -0.101699
  C  C216  1  0.64654917  0.30646557  0.43892050  1  -0.004925
  C  C217  1  0.56104200  0.30700183  0.39195293  1  0.065573
  C  C218  1  0.51985960  0.33612671  0.41484606  1  -0.063329
  C  C219  1  0.46555302  0.34795797  0.39781317  1  -0.007775
  C  C220  1  0.45144510  0.33015420  0.35817066  1  -0.047295
  C  C221  1  0.49120688  0.29964283  0.33595696  1  -0.007514
  C  C222  1  0.54568290  0.28808820  0.35271260  1  -0.072162
  C  C223  1  0.61933374  0.28444174  0.47491970  1  0.024218
  C  C224  1  0.54480380  0.12930177  0.68585694  1  0.361394
  C  C225  1  0.56710760  0.09421936  0.71709330  1  -0.234393
  C  C226  1  0.70150940  0.02775157  0.74486320  1  -0.031616
  C  C227  1  0.61974555  0.07276627  0.71298800  1  0.315731
  C  C228  1  0.64887416  0.04919821  0.74896705  1  0.214560
  C  C229  1  0.72381747  0.99266610  0.77609620  1  0.052412
  S  S230  1  0.77799726  0.81695060  0.97116077  1  0.367261
  S  S231  1  0.50489490  0.00563795  0.50746965  1  0.281545
  S  S232  1  0.47335976  0.00812023  0.40019342  1  0.384032
  S  S233  1  0.99660980  0.07644703  0.30664736  1  0.529099
  S  S234  1  0.18509158  0.73466456  0.19177130  1  0.362356
  S  S235  1  0.40121835  0.66297700  0.30872855  1  0.371303
  S  S236  1  0.30110934  0.35406336  0.68322240  1  0.362393
  S  S237  1  0.44972008  0.30639213  0.76257800  1  0.365863
  N  N238  1  0.61848530  0.79438710  0.94142330  1  -0.096290
  N  N239  1  0.99750423  0.28923030  0.87109053  1  0.851540
  N  N240  1  0.97497570  0.54259710  0.19634189  1  -0.037459
  N  N241  1  0.83723320  0.57495090  0.25792092  1  -0.013446
  N  N242  1  0.12514682  0.54603120  0.90047604  1  -0.014536
  N  N243  1  0.15836290  0.63801650  0.97938890  1  -0.017600
  O  O244  1  0.75712510  0.87048950  0.96874670  1  -0.312185
  O  O245  1  0.73976670  0.78654164  0.94483890  1  -0.187261
  O  O246  1  0.77474590  0.79770630  0.02108109  1  -0.290746
  O  O247  1  0.98654044  0.74502146  0.02457368  1  -0.432597
  O  O248  1  0.77637060  0.83355385  0.87470890  1  -0.392634
  O  O249  1  0.94929430  0.77884513  0.08331132  1  -0.376185
  O  O250  1  0.83553183  0.89366970  0.87111795  1  -0.641648
  O  O251  1  0.28608870  0.00181309  0.40370830  1  -0.338642
  O  O252  1  0.43440008  0.15279290  0.54523724  1  -0.431835
  O  O253  1  0.36688945  0.95796657  0.39043665  1  -0.320689
  O  O254  1  0.51518980  0.10893519  0.53195506  1  -0.388140
  O  O255  1  0.56377120  0.02107299  0.49669355  1  -0.147973
  O  O256  1  0.49602070  0.00997353  0.55400730  1  -0.198757
  O  O257  1  0.49923152  0.94638836  0.49280500  1  -0.215534
  O  O258  1  0.48658803  0.95309510  0.39933193  1  -0.130805
  O  O259  1  0.44552082  0.02417319  0.35953662  1  -0.281273
  O  O260  1  0.53482217  0.03670207  0.40611508  1  -0.272808
  O  O261  1  0.22994432  0.03005721  0.38240240  1  -0.118700
  O  O262  1  0.82767326  0.34790653  0.36493027  1  -0.394154
  O  O263  1  0.86705370  0.36863643  0.30296925  1  -0.369417
  O  O264  1  0.17052649  0.98212300  0.34837487  1  -0.333310
  O  O265  1  0.93378526  0.07150341  0.29865032  1  -0.248420
  O  O266  1  0.02827358  0.07250585  0.26574868  1  -0.171313
  O  O267  1  0.02024941  0.02964769  0.33793032  1  -0.378995
  O  O268  1  0.47301188  0.56085443  0.84005564  1  -0.230243
  O  O269  1  0.39342493  0.60523530  0.85781455  1  -0.240083
  O  O270  1  0.54504900  0.81933960  0.86030406  1  -0.210584
  O  O271  1  0.62464300  0.77496030  0.84254710  1  -0.203201
  O  O272  1  0.60761260  0.65647500  0.02713096  1  -0.250122
  O  O273  1  0.66607500  0.70799994  0.99478930  1  -0.270591
  O  O274  1  0.22531249  0.31171640  0.86123013  1  -0.283262
  O  O275  1  0.26684144  0.23604423  0.85007375  1  -0.222179
  O  O276  1  0.78002614  0.09714779  0.88121700  1  -0.247820
  O  O277  1  0.77513206  0.10972389  0.81187330  1  -0.207629
  O  O278  1  0.94619745  0.30907676  0.87747490  1  -0.093209
  O  O279  1  0.04133304  0.31643400  0.87409160  1  -0.069403
  O  O280  1  0.81483930  0.48875976  0.28735170  1  -0.325287
  O  O281  1  0.99759790  0.62891120  0.16710785  1  -0.362549
  O  O282  1  0.89568850  0.44174352  0.31506060  1  -0.488529
  O  O283  1  0.91674864  0.67592750  0.13939893  1  -0.480671
  O  O284  1  0.01939642  0.53817280  0.22104152  1  -0.086118
  O  O285  1  0.97882915  0.52559775  0.15819536  1  -0.099405
  O  O286  1  0.79298190  0.57930416  0.23305714  1  -0.096885
  O  O287  1  0.83310860  0.59203136  0.29603603  1  -0.108288
  O  O288  1  0.07191683  0.65555830  0.02968299  1  -0.874212
  O  O289  1  0.20439935  0.47319937  0.90395105  1  -0.558452
  O  O290  1  0.98615664  0.63436230  0.00710881  1  -0.189801
  O  O291  1  0.29015958  0.49439535  0.92652520  1  -0.348022
  O  O292  1  0.07938144  0.52103100  0.90173210  1  -0.113855
  O  O293  1  0.14705311  0.55644566  0.86437815  1  -0.228459
  O  O294  1  0.17025949  0.67215675  0.95281440  1  -0.103705
  O  O295  1  0.18673103  0.63431185  0.01451039  1  -0.119389
  O  O296  1  0.14325292  0.69539740  0.19843653  1  -0.238803
  O  O297  1  0.19826908  0.73790795  0.14584328  1  -0.214320
  O  O298  1  0.24637710  0.71916810  0.21760575  1  -0.291159
  O  O299  1  0.23566556  0.87913700  0.30105028  1  -0.465709
  O  O300  1  0.08634776  0.76997954  0.13123097  1  -0.289364
  O  O301  1  0.26904833  0.81104016  0.33488056  1  -0.225654
  O  O302  1  0.01576070  0.77891870  0.17666109  1  -0.253728
  O  O303  1  0.37819440  0.88021360  0.35102290  1  -0.398033
  O  O304  1  0.72374400  0.51639070  0.33227116  1  -0.378894
  O  O305  1  0.68686990  0.49636453  0.39527030  1  -0.431125
  O  O306  1  0.31802976  0.83118650  0.31900470  1  -0.274962
  O  O307  1  0.40133060  0.61728330  0.28180900  1  -0.203635
  O  O308  1  0.35984662  0.65823670  0.34422810  1  -0.207388
  O  O309  1  0.37918755  0.71172905  0.27904686  1  -0.282329
  O  O310  1  0.27847537  0.38947526  0.77146786  1  -0.438788
  O  O311  1  0.49558088  0.23312864  0.69720400  1  -0.225827
  O  O312  1  0.24587353  0.32745162  0.80785120  1  -0.339365
  O  O313  1  0.52818274  0.29515230  0.66082066  1  -0.195641
  O  O314  1  0.30820330  0.33047605  0.64079714  1  -0.229256
  O  O315  1  0.23832147  0.35566685  0.69384110  1  -0.201759
  O  O316  1  0.32328355  0.41199064  0.68294555  1  -0.285510
  O  O317  1  0.45769346  0.25430680  0.77850044  1  -0.189695
  O  O318  1  0.50728620  0.32507688  0.75227827  1  -0.176527
  O  O319  1  0.41901448  0.34270440  0.80018980  1  -0.357205
  O  O320  1  0.68090975  0.22374791  0.55023533  1  -0.287119
  O  O321  1  0.58732410  0.24585745  0.55907910  1  -0.413620
  O  O322  1  0.69899887  0.35725105  0.37829486  1  -0.413609
  O  O323  1  0.62146520  0.38970074  0.38148075  1  -0.341085
  O  O324  1  0.58193720  0.15472795  0.66581550  1  -0.366510
  O  O325  1  0.68668410  0.96724004  0.79613775  1  -0.448492
  O  O326  1  0.48919675  0.13681719  0.68199390  1  -0.378042
  O  O327  1  0.77942467  0.98515075  0.77995926  1  -0.488326
  F  F328  1  0.62212380  0.04967432  0.78686535  1  -0.410449
  F  F329  1  0.64649180  0.07228580  0.67508656  1  -0.461249
