# generated using pymatgen
data_BaP4H25C23I2NO12
_symmetry_space_group_name_H-M   'P 1'
_cell_length_a   8.36035000
_cell_length_b   15.60525000
_cell_length_c   17.89268000
_cell_angle_alpha   101.37556000
_cell_angle_beta   93.00795000
_cell_angle_gamma   100.54522000
_symmetry_Int_Tables_number   1
_chemical_formula_structural   BaP4H25C23I2NO12
_chemical_formula_sum   'Ba2 P8 H50 C46 I4 N2 O24'
_cell_volume   2240.34507738
_cell_formula_units_Z   2
loop_
 _symmetry_equiv_pos_site_id
 _symmetry_equiv_pos_as_xyz
  1  'x, y, z'
loop_
 _atom_site_type_symbol
 _atom_site_label
 _atom_site_symmetry_multiplicity
 _atom_site_fract_x
 _atom_site_fract_y
 _atom_site_fract_z
 _atom_site_occupancy
  Ba  Ba0  1  0.54037080  0.44982836  0.21469456  1
  Ba  Ba1  1  0.04936317  0.54380935  0.12864967  1
  P  P2  1  0.58534604  0.69378877  0.05277303  1
  P  P3  1  0.00620759  0.31072965  0.27686490  1
  P  P4  1  0.17961228  0.82846130  0.22419533  1
  P  P5  1  0.41433954  0.17820203  0.10036134  1
  P  P6  1  0.41477206  0.56917260  0.00478733  1
  P  P7  1  0.17047738  0.43269673  0.32551570  1
  P  P8  1  0.80203223  0.39417577  0.87145390  1
  P  P9  1  0.78480100  0.60989070  0.45882330  1
  H  H10  1  0.26960337  0.36617523  0.49847770  1
  H  H11  1  0.01231050  0.83706580  0.34124765  1
  H  H12  1  0.05770814  0.00178940  0.36973143  1
  H  H13  1  0.06266856  0.34015584  0.52048594  1
  H  H14  1  0.40131593  0.26187760  0.97199327  1
  H  H15  1  0.47316778  0.19912483  0.84200490  1
  H  H16  1  0.27057700  0.14723921  0.85859144  1
  H  H17  1  0.43842864  0.08916298  0.86308160  1
  H  H18  1  0.19081533  0.01146812  0.25617892  1
  H  H19  1  0.89044476  0.71630130  0.14408365  1
  H  H20  1  0.69907820  0.28635323  0.18559207  1
  H  H21  1  0.38853723  0.58375510  0.92566884  1
  H  H22  1  0.19690502  0.42894380  0.39110807  1
  H  H23  1  0.99564070  0.43424347  0.42069831  1
  H  H24  1  0.16569900  0.45429492  0.53759490  1
  H  H25  1  0.59456350  0.56402590  0.92282456  1
  H  H26  1  0.63459970  0.64065140  0.81438630  1
  H  H27  1  0.24175835  0.01004929  0.43023230  1
  H  H28  1  0.04377925  0.96643560  0.45811380  1
  H  H29  1  0.57275300  0.20609763  0.97554016  1
  H  H30  1  0.48144890  0.84281963  0.03754800  1
  H  H31  1  0.12527752  0.15565833  0.27990234  1
  H  H32  1  0.42474705  0.65613663  0.81400770  1
  H  H33  1  0.46916670  0.54561090  0.79112726  1
  H  H34  1  0.67400360  0.22739196  0.90741180  1
  H  H35  1  0.54601540  0.12008828  0.78953516  1
  H  H36  1  0.87266270  0.23177242  0.87039140  1
  H  H37  1  0.70826185  0.08007146  0.83376980  1
  H  H38  1  0.74037254  0.12678410  0.74971080  1
  H  H39  1  0.19683625  0.15365767  0.32052833  1
  H  H40  1  0.67859230  0.76697606  0.46468005  1
  H  H41  1  0.86153185  0.77397275  0.41437146  1
  H  H42  1  0.83393824  0.92159736  0.48712167  1
  H  H43  1  0.01344633  0.88782746  0.52312180  1
  H  H44  1  0.83300686  0.88098250  0.57502400  1
  H  H45  1  0.14906259  0.12615934  0.21855436  1
  H  H46  1  0.12624780  0.45083110  0.49337497  1
  H  H47  1  0.97276676  0.42423847  0.73347795  1
  H  H48  1  0.45493144  0.55788964  0.83638400  1
  H  H49  1  0.09738339  0.44791420  0.97366040  1
  H  H50  1  0.49741226  0.54330426  0.35514292  1
  H  H51  1  0.31452382  0.21571780  0.26199743  1
  H  H52  1  0.28344175  0.81149083  0.98822550  1
  H  H53  1  0.27870384  0.85961854  0.08174360  1
  H  H54  1  0.61481020  0.74470370  0.08838201  1
  H  H55  1  0.99927490  0.21446909  0.16565010  1
  H  H56  1  0.15547717  0.29983160  0.18517540  1
  H  H57  1  0.39564204  0.73281956  0.10405779  1
  H  H58  1  0.58175385  0.85068990  0.00487626  1
  H  H59  1  0.56436310  0.88837147  0.10456037  1
  C  C60  1  0.11873186  0.96898204  0.40893778  1
  C  C61  1  0.63059180  0.05816976  0.12851235  1
  C  C62  1  0.70243037  0.88301814  0.11231298  1
  C  C63  1  0.56371075  0.89761007  0.07463108  1
  C  C64  1  0.51955750  0.98036850  0.08636084  1
  C  C65  1  0.72808295  0.79501987  0.10972669  1
  C  C66  1  0.87001485  0.78334250  0.14728548  1
  C  C67  1  0.86575150  0.20802966  0.21605400  1
  C  C68  1  0.89602710  0.11982225  0.20766320  1
  C  C69  1  0.78143040  0.04563677  0.16276516  1
  C  C70  1  0.13282835  0.87495095  0.36935595  1
  C  C71  1  0.03874874  0.10331138  0.24251254  1
  C  C72  1  0.07535291  0.01840227  0.23037775  1
  C  C73  1  0.96266365  0.94405794  0.18990263  1
  C  C74  1  0.81550650  0.95764900  0.15500538  1
  C  C75  1  0.98970157  0.85603730  0.18521932  1
  C  C76  1  0.72177870  0.21935952  0.17913656  1
  C  C77  1  0.09357071  0.39486720  0.41726407  1
  C  C78  1  0.15134609  0.38860524  0.49813053  1
  C  C79  1  0.51255410  0.60934530  0.91185290  1
  C  C80  1  0.50965434  0.61313117  0.82756400  1
  C  C81  1  0.43941500  0.19638754  0.96085570  1
  C  C82  1  0.40297750  0.15536734  0.87581420  1
  C  C83  1  0.60264320  0.14716575  0.13766606  1
  C  C84  1  0.67987130  0.13207512  0.80370700  1
  C  C85  1  0.28912795  0.50627834  0.91368985  1
  C  C86  1  0.33495697  0.51983140  0.84065770  1
  C  C87  1  0.22356893  0.48709130  0.77381490  1
  C  C88  1  0.06321785  0.44501966  0.78244656  1
  C  C89  1  0.01774866  0.43211326  0.85476434  1
  C  C90  1  0.24819629  0.48664707  0.48926267  1
  C  C91  1  0.29798737  0.49586380  0.41594383  1
  C  C92  1  0.56990355  0.56900966  0.47587723  1
  C  C93  1  0.51996800  0.56127954  0.54928040  1
  C  C94  1  0.73987573  0.22395144  0.85484093  1
  C  C95  1  0.35726887  0.52008220  0.55674640  1
  C  C96  1  0.30611295  0.50825775  0.63290036  1
  C  C97  1  0.26909608  0.49918687  0.69704970  1
  C  C98  1  0.45730500  0.53880394  0.41099977  1
  C  C99  1  0.07528835  0.24849330  0.27631143  1
  C  C100  1  0.19089983  0.18216747  0.26860583  1
  C  C101  1  0.49108136  0.74497110  0.06507564  1
  C  C102  1  0.50410306  0.84026890  0.05186713  1
  C  C103  1  0.81419456  0.77880480  0.47159854  1
  C  C104  1  0.87772703  0.87321067  0.51719440  1
  C  C105  1  0.13402563  0.45733526  0.91828640  1
  I  I106  1  0.20354056  0.81231220  0.45801774  1
  I  I107  1  0.26918230  0.95894730  0.04281963  1
  I  I108  1  0.69028120  0.60824850  0.64858370  1
  I  I109  1  0.85596085  0.17592040  0.30818810  1
  N  N110  1  0.34514403  0.86068743  0.03394234  1
  N  N111  1  0.04432758  0.27442923  0.20418774  1
  O  O112  1  0.41766196  0.70379980  0.07679118  1
  O  O113  1  0.63867680  0.60420793  0.06338082  1
  O  O114  1  0.26635113  0.14412887  0.14205170  1
  O  O115  1  0.35174185  0.13921076  0.00255345  1
  O  O116  1  0.16151047  0.71244750  0.21171900  1
  O  O117  1  0.32065785  0.86114913  0.17815664  1
  O  O118  1  0.56730600  0.69562954  0.95517570  1
  O  O119  1  0.25678350  0.87921995  0.31905752  1
  O  O120  1  0.17388618  0.30066400  0.25279870  1
  O  O121  1  0.95287246  0.40030040  0.26625565  1
  O  O122  1  0.43004870  0.29206133  0.11791747  1
  O  O123  1  0.03333712  0.30874437  0.37418756  1
  O  O124  1  0.57697690  0.53948430  0.99192480  1
  O  O125  1  0.33119702  0.54574290  0.07558537  1
  O  O126  1  0.89872950  0.55057955  0.48345432  1
  O  O127  1  0.86868660  0.71779370  0.51036006  1
  O  O128  1  0.77883816  0.39264768  0.96813090  1
  O  O129  1  0.69752920  0.45901272  0.84908533  1
  O  O130  1  0.45547125  0.68248427  0.99581860  1
  O  O131  1  0.70895660  0.28980565  0.81567925  1
  O  O132  1  0.00829103  0.46243414  0.33842126  1
  O  O133  1  0.25406230  0.45612612  0.25471810  1
  O  O134  1  0.80641127  0.60922160  0.36217207  1
  O  O135  1  0.13748135  0.32074720  0.33769310  1
