# generated using pymatgen
data_Zn12H134C143N5O56
_symmetry_space_group_name_H-M   'P 1'
_cell_length_a   25.42134000
_cell_length_b   25.75282000
_cell_length_c   32.78216000
_cell_angle_alpha   91.21537000
_cell_angle_beta   92.87780000
_cell_angle_gamma   85.07154000
_symmetry_Int_Tables_number   1
_chemical_formula_structural   Zn12H134C143N5O56
_chemical_formula_sum   'Zn12 H134 C143 N5 O56'
_cell_volume   21352.14231388
_cell_formula_units_Z   1
loop_
 _symmetry_equiv_pos_site_id
 _symmetry_equiv_pos_as_xyz
  1  'x, y, z'
loop_
 _atom_site_type_symbol
 _atom_site_label
 _atom_site_symmetry_multiplicity
 _atom_site_fract_x
 _atom_site_fract_y
 _atom_site_fract_z
 _atom_site_occupancy
  Zn  Zn0  1  0.34763670  0.59548720  0.68216140  1
  Zn  Zn1  1  0.38299084  0.56488290  0.76476324  1
  Zn  Zn2  1  0.40588320  0.63220763  0.23601633  1
  Zn  Zn3  1  0.45144510  0.58154900  0.16052301  1
  Zn  Zn4  1  0.99408580  0.15956594  0.73966664  1
  Zn  Zn5  1  0.89401174  0.20692529  0.70221970  1
  Zn  Zn6  1  0.16298127  0.81539470  0.44633390  1
  Zn  Zn7  1  0.16438213  0.93054813  0.43858582  1
  Zn  Zn8  1  0.87365824  0.13329466  0.24431612  1
  Zn  Zn9  1  0.95282590  0.12518652  0.17878519  1
  Zn  Zn10  1  0.64371900  0.38049164  0.96328570  1
  Zn  Zn11  1  0.63190687  0.43019778  0.04662308  1
  H  H12  1  0.16586846  0.73346060  0.52310050  1
  H  H13  1  0.27357042  0.75340280  0.57197446  1
  H  H14  1  0.19773445  0.80455430  0.59418535  1
  H  H15  1  0.24169546  0.68230520  0.50088906  1
  H  H16  1  0.30956545  0.70164865  0.34758900  1
  H  H17  1  0.30492285  0.69874180  0.27874586  1
  H  H18  1  0.26024390  0.93737630  0.36235932  1
  H  H19  1  0.22291727  0.90731520  0.39974770  1
  H  H20  1  0.28684932  0.92948200  0.41405080  1
  H  H21  1  0.29200460  0.83281225  0.40506512  1
  H  H22  1  0.33093320  0.86277700  0.36933154  1
  H  H23  1  0.25934324  0.85851840  0.31527040  1
  H  H24  1  0.21772140  0.83024530  0.34861442  1
  H  H25  1  0.33689746  0.81101835  0.28653783  1
  H  H26  1  0.72052020  0.34967090  0.83912563  1
  H  H27  1  0.78184550  0.36194430  0.94368410  1
  H  H28  1  0.82355070  0.37045074  0.88754934  1
  H  H29  1  0.65440100  0.40248817  0.86736490  1
  H  H30  1  0.68732360  0.02193165  0.27243656  1
  H  H31  1  0.62402886  0.66366285  0.13578707  1
  H  H32  1  0.76630460  0.87592614  0.18889163  1
  H  H33  1  0.54459167  0.80786660  0.22015628  1
  H  H34  1  0.70547664  0.94679195  0.32726195  1
  H  H35  1  0.70759900  0.88001380  0.30854392  1
  H  H36  1  0.63215643  0.86292267  0.34544787  1
  H  H37  1  0.67199343  0.89993310  0.37983830  1
  H  H38  1  0.61360480  0.93148655  0.35451367  1
  H  H39  1  0.72797010  0.67812040  0.18603799  1
  H  H40  1  0.70705550  0.73285276  0.21752852  1
  H  H41  1  0.77310540  0.78180516  0.19950604  1
  H  H42  1  0.80587780  0.71661640  0.19342291  1
  H  H43  1  0.77939165  0.75222730  0.14947423  1
  H  H44  1  0.85403997  0.87154170  0.23999816  1
  H  H45  1  0.82685167  0.91756500  0.27701238  1
  H  H46  1  0.93433720  0.92321490  0.23933388  1
  H  H47  1  0.90485960  0.96642196  0.27787563  1
  H  H48  1  0.92283220  0.89883510  0.28883895  1
  H  H49  1  0.53745070  0.72199950  0.27048260  1
  H  H50  1  0.51042880  0.66296214  0.25113500  1
  H  H51  1  0.41886430  0.70817940  0.26594728  1
  H  H52  1  0.46248913  0.69214750  0.31001154  1
  H  H53  1  0.45232138  0.75810266  0.29253498  1
  H  H54  1  0.48484300  0.44799536  0.05105725  1
  H  H55  1  0.54024184  0.47728875  0.15025398  1
  H  H56  1  0.43653113  0.50900960  0.10081010  1
  H  H57  1  0.65575284  0.54802560  0.10615496  1
  H  H58  1  0.07065728  0.37414277  0.78243715  1
  H  H59  1  0.22735357  0.46633154  0.72090894  1
  H  H60  1  0.96694840  0.28311320  0.85388240  1
  H  H61  1  0.32883430  0.56600160  0.65522903  1
  H  H62  1  0.24416575  0.20321038  0.79895320  1
  H  H63  1  0.21224377  0.19941151  0.84550280  1
  H  H64  1  0.18770640  0.16677542  0.79981200  1
  H  H65  1  0.07754956  0.46234968  0.57492780  1
  H  H66  1  0.10109766  0.52487720  0.57193330  1
  H  H67  1  0.13809430  0.46815510  0.55085720  1
  H  H68  1  0.26448710  0.28001174  0.77216890  1
  H  H69  1  0.23075779  0.24142933  0.73366445  1
  H  H70  1  0.23319824  0.30976176  0.72767430  1
  H  H71  1  0.05222916  0.42758888  0.63386625  1
  H  H72  1  0.09828091  0.38165010  0.60814345  1
  H  H73  1  0.08764097  0.37536532  0.66103405  1
  H  H74  1  0.08957048  0.95101947  0.30389133  1
  H  H75  1  0.00351963  0.96926640  0.36545630  1
  H  H76  1  0.14130731  0.99964390  0.34249806  1
  H  H77  1  0.15322967  0.09084368  0.33641520  1
  H  H78  1  0.09437232  0.10695791  0.36390200  1
  H  H79  1  0.08921245  0.07814658  0.31332007  1
  H  H80  1  0.97021040  0.98326340  0.29062092  1
  H  H81  1  0.28495920  0.29799905  0.31043828  1
  H  H82  1  0.21815056  0.27839780  0.30418348  1
  H  H83  1  0.26773766  0.25346410  0.26965582  1
  H  H84  1  0.20810917  0.32165653  0.23671193  1
  H  H85  1  0.27328295  0.34192540  0.24259113  1
  H  H86  1  0.24142002  0.38835934  0.31107864  1
  H  H87  1  0.17811719  0.37442693  0.29597187  1
  H  H88  1  0.24037023  0.43141740  0.09143423  1
  H  H89  1  0.24670841  0.47628250  0.13439295  1
  H  H90  1  0.29908750  0.42638260  0.12495007  1
  H  H91  1  0.24695767  0.40216613  0.18229553  1
  H  H92  1  0.24145775  0.35758847  0.13999797  1
  H  H93  1  0.15249182  0.40105160  0.11842008  1
  H  H94  1  0.15977477  0.45121172  0.15325662  1
  H  H95  1  0.37130475  0.41302013  0.34064450  1
  H  H96  1  0.39644665  0.46958107  0.31931034  1
  H  H97  1  0.36801577  0.47420204  0.36867836  1
  H  H98  1  0.30368048  0.51439154  0.31703580  1
  H  H99  1  0.28038225  0.45765880  0.33709672  1
  H  H100  1  0.31166756  0.40443920  0.27717474  1
  H  H101  1  0.33804566  0.45408480  0.25483498  1
  H  H102  1  0.20673744  0.22033823  0.09002086  1
  H  H103  1  0.25202876  0.26999417  0.09986765  1
  H  H104  1  0.26556220  0.20691386  0.12278363  1
  H  H105  1  0.23074086  0.27594320  0.17219868  1
  H  H106  1  0.19038114  0.22204380  0.16629203  1
  H  H107  1  0.12358940  0.27126494  0.12403446  1
  H  H108  1  0.16578612  0.31864622  0.11359686  1
  H  H109  1  0.34572458  0.53562940  0.26442227  1
  H  H110  1  0.03771770  0.25823978  0.14775450  1
  H  H111  1  0.24425450  0.58720000  0.16374439  1
  H  H112  1  0.13785659  0.20141886  0.24826005  1
  H  H113  1  0.17969477  0.56462040  0.20348766  1
  H  H114  1  0.06617843  0.30984154  0.26103553  1
  H  H115  1  0.08632281  0.39966500  0.27345353  1
  H  H116  1  0.11051612  0.50655820  0.20692879  1
  H  H117  1  0.76128680  0.30521400  0.05786286  1
  H  H118  1  0.71708715  0.33021840  0.14262797  1
  H  H119  1  0.81194580  0.22048208  0.06896417  1
  H  H120  1  0.81072960  0.34594390  0.15624076  1
  H  H121  1  0.80975600  0.28431810  0.18071675  1
  H  H122  1  0.86839540  0.30120352  0.15597126  1
  H  H123  1  0.51348805  0.46286836  0.16351049  1
  H  H124  1  0.53017080  0.55426985  0.10745226  1
  H  H125  1  0.48765120  0.49400827  0.06010937  1
  H  H126  1  0.58673570  0.40642710  0.13605544  1
  H  H127  1  0.06638291  0.00195931  0.48677438  1
  H  H128  1  0.11956633  0.00227159  0.61076760  1
  H  H129  1  0.28776634  0.96991247  0.58089286  1
  H  H130  1  0.29611468  0.01332858  0.53914660  1
  H  H131  1  0.29963714  0.03708496  0.59104640  1
  H  H132  1  0.21365398  0.06592369  0.55513610  1
  H  H133  1  0.20574324  0.02558864  0.59813160  1
  H  H134  1  0.19459504  0.94881797  0.55361086  1
  H  H135  1  0.21154961  0.98475020  0.50992036  1
  H  H136  1  0.05561637  0.17186160  0.47729210  1
  H  H137  1  0.10782044  0.19581924  0.51024500  1
  H  H138  1  0.12032026  0.17676774  0.45830515  1
  H  H139  1  0.15901597  0.10826339  0.50532407  1
  H  H140  1  0.10633387  0.08467800  0.47331590  1
  H  H141  1  0.04385575  0.09987342  0.52936286  1
  H  H142  1  0.09487767  0.13016129  0.55964490  1
  H  H143  1  0.60914415  0.44333060  0.88307000  1
  H  H144  1  0.53123516  0.46408254  0.95131890  1
  H  H145  1  0.54042040  0.51321580  0.85166544  1
  C  C146  1  0.26731545  0.69889957  0.52422290  1
  C  C147  1  0.17212342  0.78796387  0.57085210  1
  C  C148  1  0.24804401  0.73608080  0.54879620  1
  C  C149  1  0.19138905  0.75078624  0.54627216  1
  C  C150  1  0.12250186  0.81758744  0.56138706  1
  C  C151  1  0.31693676  0.66927725  0.53369160  1
  C  C152  1  0.28610185  0.77940620  0.33113134  1
  C  C153  1  0.28410220  0.73658320  0.35411972  1
  C  C154  1  0.31951377  0.77606034  0.29535252  1
  C  C155  1  0.32599908  0.73243016  0.27250803  1
  C  C156  1  0.35684106  0.72995263  0.23615230  1
  C  C157  1  0.25434062  0.73456824  0.39094535  1
  C  C158  1  0.25978702  0.83266073  0.34207502  1
  C  C159  1  0.28987518  0.85799280  0.37789157  1
  C  C160  1  0.26315314  0.91134810  0.38911560  1
  C  C161  1  0.79792130  0.35535160  0.86351055  1
  C  C162  1  0.74089557  0.37691528  0.93885326  1
  C  C163  1  0.71772610  0.38269928  0.90108840  1
  C  C164  1  0.74526700  0.36257777  0.86471260  1
  C  C165  1  0.71015050  0.38715065  0.97490670  1
  C  C166  1  0.82209110  0.32254878  0.83159980  1
  C  C167  1  0.52587780  0.64323986  0.15950964  1
  C  C168  1  0.78142120  0.04471326  0.24322882  1
  C  C169  1  0.68137790  0.94321240  0.25110996  1
  C  C170  1  0.63538850  0.73706585  0.16593635  1
  C  C171  1  0.70469170  0.99094230  0.25353652  1
  C  C172  1  0.60616493  0.69435610  0.15495890  1
  C  C173  1  0.75363684  0.99575050  0.23662190  1
  C  C174  1  0.55574880  0.69019574  0.17000414  1
  C  C175  1  0.77818200  0.95067453  0.21747597  1
  C  C176  1  0.53519500  0.73125150  0.19600753  1
  C  C177  1  0.74842780  0.90819246  0.20654139  1
  C  C178  1  0.56244045  0.77608730  0.20277636  1
  C  C179  1  0.69890240  0.90457004  0.22264811  1
  C  C180  1  0.61303800  0.77908230  0.18921098  1
  C  C181  1  0.66843160  0.86014040  0.21177523  1
  C  C182  1  0.64300410  0.82353170  0.20150761  1
  C  C183  1  0.68085456  0.91520310  0.31593830  1
  C  C184  1  0.64731870  0.90168290  0.35088840  1
  C  C185  1  0.72122670  0.72115743  0.18667091  1
  C  C186  1  0.77311450  0.74445707  0.18200594  1
  C  C187  1  0.85202765  0.91289777  0.24991584  1
  C  C188  1  0.90698170  0.92631270  0.26467395  1
  C  C189  1  0.50223960  0.70590830  0.25476623  1
  C  C190  1  0.45615280  0.71671957  0.28248350  1
  C  C191  1  0.55533730  0.48385563  0.06467737  1
  C  C192  1  0.50073230  0.49601504  0.14406925  1
  C  C193  1  0.47705170  0.49306083  0.10696573  1
  C  C194  1  0.50610954  0.47227140  0.07239892  1
  C  C195  1  0.47851884  0.53243446  0.17414816  1
  C  C196  1  0.57653075  0.45986825  0.02807204  1
  C  C197  1  0.58491520  0.52409520  0.08715859  1
  C  C198  1  0.20158118  0.54536605  0.59576590  1
  C  C199  1  0.10581364  0.22006956  0.85160710  1
  C  C200  1  0.14344199  0.33149230  0.76738274  1
  C  C201  1  0.16480290  0.43734774  0.68305040  1
  C  C202  1  0.15134221  0.36900690  0.73796990  1
  C  C203  1  0.15711530  0.40036637  0.71292700  1
  C  C204  1  0.09737235  0.33964437  0.78843945  1
  C  C205  1  0.20487346  0.46975535  0.69189525  1
  C  C206  1  0.08389853  0.30303735  0.81554866  1
  C  C207  1  0.21812549  0.50466794  0.66333980  1
  C  C208  1  0.11857695  0.25780650  0.82215840  1
  C  C209  1  0.18917635  0.50768400  0.62540630  1
  C  C210  1  0.16700044  0.24999557  0.80213165  1
  C  C211  1  0.14650984  0.47635657  0.61661184  1
  C  C212  1  0.17926012  0.28721127  0.77377350  1
  C  C213  1  0.13468154  0.43993503  0.64575340  1
  C  C214  1  0.03226272  0.31250858  0.83497465  1
  C  C215  1  0.26382370  0.53564560  0.67372350  1
  C  C216  1  0.20493042  0.20246549  0.81191766  1
  C  C217  1  0.11397570  0.48301673  0.57655540  1
  C  C218  1  0.22954543  0.27934638  0.75050807  1
  C  C219  1  0.09092321  0.40415230  0.63686043  1
  C  C220  1  0.02440390  0.96579760  0.24064750  1
  C  C221  1  0.01065644  0.97144860  0.28296340  1
  C  C222  1  0.04953640  0.96405030  0.31171310  1
  C  C223  1  0.07206114  0.01051772  0.37475890  1
  C  C224  1  0.04039310  0.97932345  0.35345727  1
  C  C225  1  0.05519196  0.03046715  0.41407695  1
  C  C226  1  0.11364293  0.07833791  0.34238523  1
  C  C227  1  0.09382273  0.24764414  0.20007308  1
  C  C228  1  0.18925503  0.52767280  0.21834305  1
  C  C229  1  0.27946675  0.57613040  0.18248123  1
  C  C230  1  0.10503414  0.20582867  0.22616442  1
  C  C231  1  0.28386050  0.54055130  0.21480864  1
  C  C232  1  0.20941995  0.43160343  0.25749236  1
  C  C233  1  0.14414968  0.37863620  0.18144816  1
  C  C234  1  0.25144216  0.46403813  0.25395226  1
  C  C235  1  0.08864485  0.32846117  0.23910941  1
  C  C236  1  0.13467717  0.32536602  0.17510632  1
  C  C237  1  0.24163514  0.51055440  0.23022021  1
  C  C238  1  0.10884108  0.30045485  0.20558080  1
  C  C239  1  0.21610150  0.38226944  0.28323263  1
  C  C240  1  0.23820464  0.33379477  0.25943065  1
  C  C241  1  0.25316963  0.28816077  0.28782982  1
  C  C242  1  0.14897376  0.49533257  0.22139280  1
  C  C243  1  0.16990744  0.40889394  0.14939201  1
  C  C244  1  0.23032735  0.39793180  0.15064466  1
  C  C245  1  0.25553542  0.43542477  0.12361787  1
  C  C246  1  0.30527710  0.44716290  0.27434576  1
  C  C247  1  0.31070918  0.47129008  0.31761867  1
  C  C248  1  0.36506352  0.45602554  0.33772090  1
  C  C249  1  0.15513432  0.29374126  0.13834755  1
  C  C250  1  0.20338710  0.25625652  0.15068041  1
  C  C251  1  0.23372170  0.23717353  0.11345772  1
  C  C252  1  0.09843104  0.37994444  0.24549924  1
  C  C253  1  0.16071410  0.44518690  0.23596980  1
  C  C254  1  0.12995128  0.40349080  0.21905509  1
  C  C255  1  0.33210742  0.54677460  0.23417620  1
  C  C256  1  0.05323841  0.23583822  0.17368798  1
  C  C257  1  0.86204165  0.19871971  0.12292883  1
  C  C258  1  0.82486725  0.23376496  0.09925431  1
  C  C259  1  0.80428930  0.27963668  0.11452618  1
  C  C260  1  0.71874220  0.32998618  0.10956001  1
  C  C261  1  0.76051430  0.30696040  0.09101557  1
  C  C262  1  0.67558336  0.35704318  0.08557250  1
  C  C263  1  0.82448673  0.30389684  0.15423195  1
  C  C264  1  0.51868750  0.46234515  0.06382167  1
  C  C265  1  0.52303046  0.53318650  0.13470880  1
  C  C266  1  0.52031195  0.48143330  0.13519493  1
  C  C267  1  0.53653634  0.44808462  0.10109431  1
  C  C268  1  0.54571617  0.44464950  0.02776769  1
  C  C269  1  0.52003866  0.55909170  0.17387837  1
  C  C270  1  0.07309032  0.07637495  0.62629120  1
  C  C271  1  0.12887001  0.94192480  0.46760157  1
  C  C272  1  0.10184342  0.03843723  0.59769020  1
  C  C273  1  0.10615176  0.98530530  0.49486545  1
  C  C274  1  0.10528688  0.04603938  0.55618507  1
  C  C275  1  0.13232435  0.00413608  0.52951217  1
  C  C276  1  0.19092177  0.98767960  0.53911730  1
  C  C277  1  0.22029251  0.02572708  0.56694320  1
  C  C278  1  0.27963066  0.01032820  0.56962734  1
  C  C279  1  0.08702437  0.09864658  0.53703064  1
  C  C280  1  0.11562443  0.11178225  0.49882168  1
  C  C281  1  0.09868576  0.16748339  0.48540974  1
  C  C282  1  0.43662040  0.50334454  0.85028400  1
  C  C283  1  0.57231080  0.45558518  0.89722620  1
  C  C284  1  0.56594825  0.44644946  0.93660250  1
  C  C285  1  0.52946466  0.48481664  0.87304070  1
  C  C286  1  0.47840357  0.47517370  0.87531996  1
  C  C287  1  0.60517430  0.41726655  0.96271634  1
  C  C288  1  0.46323640  0.43095335  0.89760910  1
  N  N289  1  0.11943018  0.02682209  0.35954583  1
  N  N290  1  0.03775994  0.19048320  0.18484049  1
  N  N291  1  0.32339293  0.60205245  0.18299605  1
  N  N292  1  0.06981379  0.17064698  0.21672050  1
  N  N293  1  0.35544676  0.58221620  0.21487606  1
  O  O294  1  0.10723415  0.84842676  0.58987415  1
  O  O295  1  0.33220370  0.63843423  0.50520290  1
  O  O296  1  0.10651521  0.82261120  0.52349450  1
  O  O297  1  0.33292264  0.66424970  0.57158256  1
  O  O298  1  0.27587497  0.70655864  0.42071557  1
  O  O299  1  0.20757090  0.75893360  0.39263108  1
  O  O300  1  0.38966793  0.76457080  0.23054597  1
  O  O301  1  0.34877405  0.69354165  0.20957538  1
  O  O302  1  0.87176280  0.31045485  0.83467966  1
  O  O303  1  0.79248890  0.30370936  0.80373526  1
  O  O304  1  0.73684835  0.38767722  0.01009691  1
  O  O305  1  0.66579190  0.36550125  0.97316320  1
  O  O306  1  0.66525930  0.40181830  0.89683250  1
  O  O307  1  0.47658843  0.64573884  0.17195164  1
  O  O308  1  0.82969755  0.04318094  0.22892803  1
  O  O309  1  0.55065410  0.60365176  0.13851257  1
  O  O310  1  0.75563190  0.08526790  0.26236713  1
  O  O311  1  0.64843060  0.93148744  0.28118527  1
  O  O312  1  0.68620480  0.73741980  0.15368919  1
  O  O313  1  0.83267090  0.94427690  0.21636775  1
  O  O314  1  0.48903465  0.72823530  0.21607089  1
  O  O315  1  0.62621280  0.44428340  0.02934228  1
  O  O316  1  0.55412054  0.47868192  0.99513960  1
  O  O317  1  0.50603104  0.54055110  0.20684746  1
  O  O318  1  0.43562618  0.55931280  0.16472450  1
  O  O319  1  0.56134790  0.56355476  0.10086747  1
  O  O320  1  0.64011970  0.51789170  0.09084944  1
  O  O321  1  0.20237620  0.59330195  0.60659330  1
  O  O322  1  0.09655514  0.23531052  0.88812380  1
  O  O323  1  0.21078140  0.53013340  0.55923790  1
  O  O324  1  0.10497411  0.17215920  0.84075550  1
  O  O325  1  0.01572929  0.35694860  0.84439045  1
  O  O326  1  0.00154905  0.27120197  0.84112760  1
  O  O327  1  0.27167907  0.55129580  0.70881546  1
  O  O328  1  0.29902297  0.54530080  0.64398026  1
  O  O329  1  0.07349781  0.96894515  0.23316278  1
  O  O330  1  0.98882540  0.95517220  0.21257347  1
  O  O331  1  0.09013672  0.04475474  0.44136370  1
  O  O332  1  0.00546427  0.03098178  0.42077440  1
  O  O333  1  0.85918150  0.19969139  0.16218998  1
  O  O334  1  0.89495740  0.16636845  0.10416847  1
  O  O335  1  0.64004190  0.38636062  0.10418832  1
  O  O336  1  0.67581770  0.35303770  0.04616682  1
  O  O337  1  0.54738910  0.53474790  0.20249486  1
  O  O338  1  0.48061955  0.59315187  0.17935216  1
  O  O339  1  0.53044210  0.46878242  0.99491334  1
  O  O340  1  0.58619900  0.41120997  0.03124250  1
  O  O341  1  0.57337850  0.40586346  0.10712200  1
  O  O342  1  0.03473491  0.10566641  0.60752565  1
  O  O343  1  0.16343060  0.90924610  0.48721546  1
  O  O344  1  0.08630486  0.07686767  0.66688710  1
  O  O345  1  0.11186060  0.93804485  0.42785400  1
  O  O346  1  0.39539528  0.47929040  0.84149540  1
  O  O347  1  0.44079897  0.54991454  0.83724240  1
  O  O348  1  0.64373840  0.38793498  0.94755054  1
  O  O349  1  0.59995950  0.42301947  0.00144875  1
