# generated using pymatgen
data_Cu4H79C92I2N13(O4F)8
_symmetry_space_group_name_H-M   'P 1'
_cell_length_a   12.45486000
_cell_length_b   12.73661000
_cell_length_c   22.25823000
_cell_angle_alpha   91.42112000
_cell_angle_beta   89.50073000
_cell_angle_gamma   87.35150000
_symmetry_Int_Tables_number   1
_chemical_formula_structural   Cu4H79C92I2N13(O4F)8
_chemical_formula_sum   'Cu4 H79 C92 I2 N13 O32 F8'
_cell_volume   3525.85460135
_cell_formula_units_Z   1
loop_
 _symmetry_equiv_pos_site_id
 _symmetry_equiv_pos_as_xyz
  1  'x, y, z'
loop_
 _atom_site_type_symbol
 _atom_site_label
 _atom_site_symmetry_multiplicity
 _atom_site_fract_x
 _atom_site_fract_y
 _atom_site_fract_z
 _atom_site_occupancy
  Cu  Cu0  1  0.09631070  0.39838904  0.44480562  1
  Cu  Cu1  1  0.90452325  0.44450644  0.44300336  1
  Cu  Cu2  1  0.65278584  0.73254436  0.94901630  1
  Cu  Cu3  1  0.84767350  0.72450775  0.95852745  1
  H  H4  1  0.30419930  0.30806547  0.49843730  1
  H  H5  1  0.59361786  0.50757736  0.35059068  1
  H  H6  1  0.74799466  0.55659500  0.30850983  1
  H  H7  1  0.14982247  0.25904784  0.54051810  1
  H  H8  1  0.00602899  0.37691580  0.31189670  1
  H  H9  1  0.89180060  0.43873027  0.53713150  1
  H  H10  1  0.56353956  0.29733092  0.38258645  1
  H  H11  1  0.33427417  0.51829090  0.46645433  1
  H  H12  1  0.77168780  0.73825360  0.71168190  1
  H  H13  1  0.95180273  0.50631857  0.84609450  1
  H  H14  1  0.12444079  0.45118126  0.89851520  1
  H  H15  1  0.21153438  0.40901098  0.83587545  1
  H  H16  1  0.25731134  0.24209213  0.88375086  1
  H  H17  1  0.28301585  0.35093588  0.93449306  1
  H  H18  1  0.16578352  0.27500314  0.94530220  1
  H  H19  1  0.11345887  0.27152780  0.73623323  1
  H  H20  1  0.22359574  0.28505313  0.65699124  1
  H  H21  1  0.22910643  0.42239150  0.68130080  1
  H  H22  1  0.24576712  0.47110888  0.57444020  1
  H  H23  1  0.35424292  0.38417030  0.59891210  1
  H  H24  1  0.24991560  0.33167303  0.55324006  1
  H  H25  1  0.62041360  0.69084233  0.64899260  1
  H  H26  1  0.64230540  0.55459934  0.62414310  1
  H  H27  1  0.62707370  0.60772100  0.51791520  1
  H  H28  1  0.50814617  0.64708470  0.56139740  1
  H  H29  1  0.60413474  0.74356430  0.54243880  1
  H  H30  1  0.94278980  0.69949620  0.27158645  1
  H  H31  1  0.82197600  0.34837022  0.27392316  1
  H  H32  1  0.60742795  0.33420620  0.12545078  1
  H  H33  1  0.56009860  0.24628523  0.26955980  1
  H  H34  1  0.52806920  0.21553029  0.19228558  1
  H  H35  1  0.57422370  0.11292366  0.24128032  1
  H  H36  1  0.72104150  0.16286653  0.17156915  1
  H  H37  1  0.75225040  0.18491599  0.24908179  1
  H  H38  1  0.57254500  0.48599648  0.06984735  1
  H  H39  1  0.61916596  0.68249506  0.13887407  1
  H  H40  1  0.51017040  0.59987610  0.15874967  1
  H  H41  1  0.51243810  0.66245800  0.08680069  1
  H  H42  1  0.77091400  0.83169760  0.11467595  1
  H  H43  1  0.75884540  0.87005180  0.19304700  1
  H  H44  1  0.83857640  0.94457130  0.14277954  1
  H  H45  1  0.95263050  0.83256626  0.20726666  1
  H  H46  1  0.97481160  0.79659980  0.13154957  1
  H  H47  1  0.43877408  0.58821255  0.04774773  1
  H  H48  1  0.40956593  0.66391310  0.10934115  1
  H  H49  1  0.27544028  0.55608920  0.03642297  1
  H  H50  1  0.24088015  0.60718036  0.10307598  1
  H  H51  1  0.39172545  0.84065664  0.10749197  1
  H  H52  1  0.34421587  0.90889230  0.05009925  1
  H  H53  1  0.22113875  0.77617353  0.12598467  1
  H  H54  1  0.19078971  0.87074420  0.07860386  1
  H  H55  1  0.86565250  0.96248835  0.34774253  1
  H  H56  1  0.87973726  0.99566174  0.10163863  1
  H  H57  1  0.81533760  0.43051916  0.21178360  1
  H  H58  1  0.88747406  0.35021374  0.11965004  1
  H  H59  1  0.07338428  0.56264820  0.21854968  1
  H  H60  1  0.00655937  0.76740290  0.38559538  1
  H  H61  1  0.01178288  0.17106281  0.01451141  1
  H  H62  1  0.80680627  0.10525197  0.39651477  1
  H  H63  1  0.11800542  0.56786895  0.79458270  1
  H  H64  1  0.44297612  0.66457915  0.60227376  1
  H  H65  1  0.63255380  0.66095686  0.59616180  1
  H  H66  1  0.95253870  0.54620210  0.74566510  1
  H  H67  1  0.87668700  0.69822687  0.70654154  1
  H  H68  1  0.85661150  0.60449820  0.64596530  1
  H  H69  1  0.96726394  0.69085540  0.64293164  1
  H  H70  1  0.28228146  0.56993190  0.54502890  1
  H  H71  1  0.40203348  0.40355054  0.61362290  1
  H  H72  1  0.27991214  0.37834597  0.57290953  1
  H  H73  1  0.39826447  0.41696724  0.53330950  1
  H  H74  1  0.81156720  0.55674600  0.71338546  1
  H  H75  1  0.91320580  0.58823920  0.62918370  1
  H  H76  1  0.80992740  0.67456620  0.60062190  1
  H  H77  1  0.79455470  0.53273400  0.59923404  1
  H  H78  1  0.55968595  0.44227916  0.83073350  1
  H  H79  1  0.52699876  0.47918737  0.93566024  1
  H  H80  1  0.40459606  0.43107334  0.90501270  1
  H  H81  1  0.42032890  0.57231900  0.91661350  1
  H  H82  1  0.28846532  0.53394836  0.84050180  1
  C  C83  1  0.75036776  0.51252380  0.39163783  1
  C  C84  1  0.14744937  0.30311903  0.45739010  1
  C  C85  1  0.64012920  0.49344772  0.39077140  1
  C  C86  1  0.25768793  0.32219510  0.45825654  1
  C  C87  1  0.58906530  0.45905665  0.44214678  1
  C  C88  1  0.30875182  0.35658620  0.40688110  1
  C  C89  1  0.64923380  0.44259852  0.49416363  1
  C  C90  1  0.24858332  0.37304434  0.35486430  1
  C  C91  1  0.75962740  0.46052770  0.49372363  1
  C  C92  1  0.13818981  0.35511510  0.35530430  1
  C  C93  1  0.47144717  0.44634005  0.44173706  1
  C  C94  1  0.42637002  0.36930278  0.40729085  1
  C  C95  1  0.93024530  0.52545730  0.74996954  1
  C  C96  1  0.87020990  0.62121530  0.75533015  1
  C  C97  1  0.81805270  0.66434060  0.70647305  1
  C  C98  1  0.82332116  0.61288140  0.65085274  1
  C  C99  1  0.89137300  0.52121420  0.64227587  1
  C  C100  1  0.86674730  0.68159705  0.81091110  1
  C  C101  1  0.88710546  0.46405837  0.58385956  1
  C  C102  1  0.97036510  0.47500387  0.80144260  1
  C  C103  1  0.03220415  0.38125506  0.79604510  1
  C  C104  1  0.06123805  0.34173740  0.73927080  1
  C  C105  1  0.03294909  0.39784113  0.68725730  1
  C  C106  1  0.95125896  0.48010376  0.69206230  1
  C  C107  1  0.15521800  0.38201913  0.87101346  1
  C  C108  1  0.21925294  0.30787358  0.91121410  1
  C  C109  1  0.20281327  0.36763280  0.64492726  1
  C  C110  1  0.26694190  0.39028803  0.58907570  1
  C  C111  1  0.65508280  0.63777137  0.61263550  1
  C  C112  1  0.59490250  0.66055125  0.55491230  1
  C  C113  1  0.81570090  0.48583624  0.21798462  1
  C  C114  1  0.87567530  0.54982190  0.25588286  1
  C  C115  1  0.90412074  0.64902960  0.23912178  1
  C  C116  1  0.88397586  0.68363550  0.18157671  1
  C  C117  1  0.83111656  0.61585680  0.14077072  1
  C  C118  1  0.88791660  0.52636635  0.31789637  1
  C  C119  1  0.84117500  0.62923740  0.07542582  1
  C  C120  1  0.78839296  0.38385830  0.23414360  1
  C  C121  1  0.71906420  0.32599520  0.19853468  1
  C  C122  1  0.66799960  0.37493480  0.15027145  1
  C  C123  1  0.69198734  0.47748747  0.13475698  1
  C  C124  1  0.77939770  0.52674380  0.16334398  1
  C  C125  1  0.69973550  0.21267755  0.21200177  1
  C  C126  1  0.58319443  0.19638892  0.22976762  1
  C  C127  1  0.56301147  0.62402153  0.12155315  1
  C  C128  1  0.91373420  0.79517525  0.16791096  1
  C  C129  1  0.81427300  0.86436350  0.15361214  1
  C  C130  1  0.34454337  0.83825490  0.93615540  1
  C  C131  1  0.21922886  0.83880660  0.95047474  1
  C  C132  1  0.36208877  0.65244910  0.93200080  1
  C  C133  1  0.23432612  0.65393436  0.93311536  1
  C  C134  1  0.36935472  0.74470955  0.03109932  1
  C  C135  1  0.24181654  0.72220100  0.03708661  1
  C  C136  1  0.80193200  0.35042200  0.31871020  1
  C  C137  1  0.92276955  0.84501356  0.24955308  1
  C  C138  1  0.92113010  0.84825885  0.13991109  1
  C  C139  1  0.83364785  0.34643382  0.21032412  1
  C  C140  1  0.87348014  0.29997644  0.15725390  1
  C  C141  1  0.90509320  0.19316944  0.15394630  1
  C  C142  1  0.88235220  0.12704977  0.20314151  1
  C  C143  1  0.84928733  0.17699899  0.25948130  1
  C  C144  1  0.89422905  0.01397456  0.19891721  1
  C  C145  1  0.89746350  0.95532537  0.25221843  1
  C  C146  1  0.87032990  0.00684807  0.30710298  1
  C  C147  1  0.84224800  0.11463952  0.31105150  1
  C  C148  1  0.89711475  0.95694953  0.14328696  1
  C  C149  1  0.93733440  0.79206670  0.19312842  1
  C  C150  1  0.82607200  0.28844900  0.26238784  1
  C  C151  1  0.94082400  0.79566240  0.08045848  1
  C  C152  1  0.97182160  0.67838395  0.18976772  1
  C  C153  1  0.93373406  0.78432550  0.30560055  1
  C  C154  1  0.97734165  0.16026841  0.10281519  1
  C  C155  1  0.26205070  0.56536400  0.63837150  1
  C  C156  1  0.09668036  0.56927340  0.69903640  1
  C  C157  1  0.60594950  0.60010460  0.74412304  1
  C  C158  1  0.59720680  0.63784530  0.63801056  1
  C  C159  1  0.48644274  0.63526130  0.64058230  1
  C  C160  1  0.43416837  0.59715770  0.69128060  1
  C  C161  1  0.09090213  0.51312630  0.59222240  1
  C  C162  1  0.65698030  0.63459116  0.80092317  1
  C  C163  1  0.15792817  0.57055205  0.75118390  1
  C  C164  1  0.14943434  0.55876625  0.64255830  1
  C  C165  1  0.65989890  0.61390710  0.68842554  1
  C  C166  1  0.91812360  0.64369124  0.67320323  1
  C  C167  1  0.49462202  0.58100843  0.74432090  1
  C  C168  1  0.35053307  0.42836016  0.57552590  1
  C  C169  1  0.82503635  0.60065950  0.62516920  1
  C  C170  1  0.46106648  0.49582243  0.90352184  1
  C  C171  1  0.32221755  0.58051836  0.69166950  1
  C  C172  1  0.26991236  0.57050110  0.74777526  1
  C  C173  1  0.33001965  0.55236810  0.79948384  1
  C  C174  1  0.44262960  0.54760087  0.79680777  1
  I  I175  1  0.57656705  0.38741934  0.57371710  1
  I  I176  1  0.32125000  0.42822350  0.27531078  1
  N  N177  1  0.80859226  0.49655366  0.44280863  1
  N  N178  1  0.08922491  0.31908914  0.40621930  1
  N  N179  1  0.62116510  0.53296340  0.09516738  1
  N  N180  1  0.22541818  0.61369730  0.05721879  1
  N  N181  1  0.39541295  0.84562420  0.06068981  1
  N  N182  1  0.18748939  0.79074120  0.08394647  1
  N  N183  1  0.40446857  0.74696803  0.96485510  1
  N  N184  1  0.18675585  0.73661260  0.97699577  1
  N  N185  1  0.43361968  0.66497520  0.06422841  1
  N  N186  1  0.98262614  0.56454563  0.70407300  1
  N  N187  1  0.31593144  0.53796256  0.58290476  1
  N  N188  1  0.77517825  0.60877025  0.68437290  1
  N  N189  1  0.50549096  0.50233470  0.84388570  1
  O  O190  1  0.80031350  0.55039924  0.34171394  1
  O  O191  1  0.09750359  0.26524360  0.50731390  1
  O  O192  1  0.08323570  0.37244198  0.30288082  1
  O  O193  1  0.81458160  0.44320090  0.54614710  1
  O  O194  1  0.48668435  0.29688940  0.37190324  1
  O  O195  1  0.41113275  0.51875340  0.47712466  1
  O  O196  1  0.85163605  0.51322430  0.53686310  1
  O  O197  1  0.91094740  0.36392793  0.58166957  1
  O  O198  1  0.78029495  0.68296210  0.84294550  1
  O  O199  1  0.95201660  0.72776280  0.82758810  1
  O  O200  1  0.06826842  0.32877670  0.84613070  1
  O  O201  1  0.09084606  0.38066300  0.63369954  1
  O  O202  1  0.76521990  0.65560025  0.60387605  1
  O  O203  1  0.90354840  0.69788600  0.05432330  1
  O  O204  1  0.79444090  0.56551800  0.03967430  1
  O  O205  1  0.82184650  0.57105030  0.35563126  1
  O  O206  1  0.96294030  0.46183515  0.33368420  1
  O  O207  1  0.69908910  0.36137995  0.33568266  1
  O  O208  1  0.88622650  0.39192867  0.34528640  1
  O  O209  1  0.85639040  0.75564380  0.05339199  1
  O  O210  1  0.04305434  0.78608420  0.06296812  1
  O  O211  1  0.92607623  0.61790380  0.15619217  1
  O  O212  1  0.05710208  0.64088430  0.22495516  1
  O  O213  1  0.88047826  0.70721540  0.31271840  1
  O  O214  1  0.00598204  0.81495170  0.34972796  1
  O  O215  1  0.05710137  0.10298429  0.11115996  1
  O  O216  1  0.95648533  0.19835709  0.04548894  1
  O  O217  1  0.80855566  0.15969831  0.36549300  1
  O  O218  1  0.04446551  0.42772690  0.60179790  1
  O  O219  1  0.75448155  0.60782370  0.81118566  1
  O  O220  1  0.09036142  0.55380076  0.53981030  1
  O  O221  1  0.60624474  0.70066090  0.83683560  1
  F  F222  1  0.20161020  0.55509510  0.94568310  1
  F  F223  1  0.35929427  0.83472050  0.87420946  1
  F  F224  1  0.16375977  0.85678140  0.89797770  1
  F  F225  1  0.38557068  0.93239635  0.95332320  1
  F  F226  1  0.19000383  0.92429000  0.98686284  1
  F  F227  1  0.39820302  0.64891154  0.87290780  1
  F  F228  1  0.19629396  0.67132366  0.87558420  1
  F  F229  1  0.40243012  0.55929995  0.95473784  1
