# generated using pymatgen
data_Zn2H3C26Br3N4(ClO2)4
_symmetry_space_group_name_H-M   'P 1'
_cell_length_a   11.74036000
_cell_length_b   12.10553000
_cell_length_c   12.55500000
_cell_angle_alpha   88.01508000
_cell_angle_beta   88.28896000
_cell_angle_gamma   86.50353000
_symmetry_Int_Tables_number   1
_chemical_formula_structural   Zn2H3C26Br3N4(ClO2)4
_chemical_formula_sum   'Zn2 H3 C26 Br3 N4 Cl4 O8'
_cell_volume   1779.27895656
_cell_formula_units_Z   1
loop_
 _symmetry_equiv_pos_site_id
 _symmetry_equiv_pos_as_xyz
  1  'x, y, z'
loop_
 _atom_site_type_symbol
 _atom_site_label
 _atom_site_symmetry_multiplicity
 _atom_site_fract_x
 _atom_site_fract_y
 _atom_site_fract_z
 _atom_site_occupancy
  Zn  Zn0  1  0.50207806  0.01991898  0.67672510  1
  Zn  Zn1  1  0.53193620  0.05785548  0.43543562  1
  H  H2  1  0.28463367  0.53503250  0.60735700  1
  H  H3  1  0.74739760  0.54314107  0.50895760  1
  H  H4  1  0.68879145  0.99221900  0.95096636  1
  C  C5  1  0.36711360  0.50079554  0.57984185  1
  C  C6  1  0.66493190  0.57738066  0.53651060  1
  C  C7  1  0.37553146  0.39174280  0.54672486  1
  C  C8  1  0.65644956  0.68645610  0.56967217  1
  C  C9  1  0.57350470  0.40363225  0.50600090  1
  C  C10  1  0.45856470  0.67445460  0.61040190  1
  C  C11  1  0.56843895  0.51451690  0.53938840  1
  C  C12  1  0.46364000  0.56360710  0.57697430  1
  C  C13  1  0.48782330  0.98610320  0.97571670  1
  C  C14  1  0.61923313  0.23304670  0.99467050  1
  C  C15  1  0.66898555  0.90293187  0.17894806  1
  C  C16  1  0.45748705  0.92759000  0.88185126  1
  C  C17  1  0.57221860  0.15149367  0.23850076  1
  C  C18  1  0.44221184  0.10401720  0.00213274  1
  C  C19  1  0.46622667  0.94583670  0.09162051  1
  C  C20  1  0.42100164  0.06438141  0.11887557  1
  C  C21  1  0.54317580  0.09220886  0.14450808  1
  C  C22  1  0.56441146  0.13136423  0.02845358  1
  C  C23  1  0.58811647  0.97450240  0.11700497  1
  C  C24  1  0.61095920  0.01354160  0.00027426  1
  C  C25  1  0.74077106  0.03046086  0.58456450  1
  C  C26  1  0.29506058  0.05157988  0.53011380  1
  C  C27  1  0.85925310  0.03495263  0.57292277  1
  C  C28  1  0.17658010  0.04706552  0.54175276  1
  C  C29  1  0.95957870  0.03878587  0.56306857  1
  C  C30  1  0.07625299  0.04325512  0.55160980  1
  Br  Br31  1  0.39608294  0.81035410  0.13676594  1
  Br  Br32  1  0.33708810  0.19609673  0.91609950  1
  Br  Br33  1  0.28601240  0.10256362  0.20588754  1
  N  N34  1  0.55428860  0.73391104  0.60539620  1
  N  N35  1  0.47769293  0.34427553  0.51105360  1
  N  N36  1  0.73278520  0.84653860  0.22775541  1
  N  N37  1  0.66257230  0.31319097  0.96819293  1
  Cl  Cl38  1  0.25061130  0.31892794  0.55199194  1
  Cl  Cl39  1  0.32927700  0.73670924  0.66022460  1
  Cl  Cl40  1  0.70282215  0.34106737  0.45631820  1
  Cl  Cl41  1  0.78133625  0.75932320  0.56439470  1
  O  O42  1  0.55065566  0.25637245  0.24032818  1
  O  O43  1  0.61609860  0.09633655  0.31734306  1
  O  O44  1  0.53291570  0.91542864  0.80564660  1
  O  O45  1  0.35661185  0.89102130  0.87885857  1
  O  O46  1  0.69639695  0.01420528  0.67656300  1
  O  O47  1  0.33943474  0.06783555  0.43811536  1
  O  O48  1  0.35602784  0.03896001  0.61172014  1
  O  O49  1  0.67980385  0.04308082  0.50295820  1
