# generated using pymatgen
data_Zn2H26C44BrN13(ClO8)2
_symmetry_space_group_name_H-M   'P 1'
_cell_length_a   16.06007000
_cell_length_b   16.23543000
_cell_length_c   17.65924000
_cell_angle_alpha   100.70659000
_cell_angle_beta   101.32796000
_cell_angle_gamma   83.24268000
_symmetry_Int_Tables_number   1
_chemical_formula_structural   Zn2H26C44BrN13(ClO8)2
_chemical_formula_sum   'Zn2 H26 C44 Br1 N13 Cl2 O16'
_cell_volume   4420.43792086
_cell_formula_units_Z   1
loop_
 _symmetry_equiv_pos_site_id
 _symmetry_equiv_pos_as_xyz
  1  'x, y, z'
loop_
 _atom_site_type_symbol
 _atom_site_label
 _atom_site_symmetry_multiplicity
 _atom_site_fract_x
 _atom_site_fract_y
 _atom_site_fract_z
 _atom_site_occupancy
  Zn  Zn0  1  0.56839454  0.30284690  0.02485895  1
  Zn  Zn1  1  0.43678810  0.20433924  0.90670280  1
  H  H2  1  0.29348950  0.22694181  0.22823857  1
  H  H3  1  0.71364900  0.28286538  0.70348823  1
  H  H4  1  0.48817497  0.16107646  0.44778743  1
  H  H5  1  0.51895950  0.34873070  0.48394015  1
  H  H6  1  0.61443900  0.33472030  0.39670223  1
  H  H7  1  0.39269940  0.17508695  0.53502446  1
  H  H8  1  0.71901430  0.30626357  0.58377480  1
  H  H9  1  0.28812420  0.20354378  0.34795200  1
  H  H10  1  0.57070900  0.46223876  0.83918226  1
  H  H11  1  0.66936020  0.48457950  0.88696990  1
  H  H12  1  0.43422177  0.05262363  0.09605086  1
  H  H13  1  0.33557054  0.03028286  0.04826319  1
  H  H14  1  0.54043030  0.76094000  0.80384470  1
  H  H15  1  0.46449530  0.75392020  0.13137901  1
  H  H16  1  0.45474562  0.97451410  0.74363536  1
  H  H17  1  0.55171764  0.00521719  0.79326240  1
  H  H18  1  0.55018526  0.54034823  0.19159782  1
  H  H19  1  0.45321310  0.50964510  0.14197063  1
  H  H20  1  0.56653220  0.62297666  0.89334820  1
  H  H21  1  0.43839866  0.89188564  0.04188478  1
  H  H22  1  0.28051057  0.45044652  0.98559490  1
  H  H23  1  0.77059984  0.23925409  0.18182778  1
  H  H24  1  0.17992087  0.38653585  0.03788710  1
  H  H25  1  0.90943265  0.26484170  0.15855336  1
  H  H26  1  0.76750760  0.01483883  0.00600660  1
  H  H27  1  0.90572035  0.04062747  0.98288554  1
  C  C28  1  0.35418010  0.29120670  0.12374992  1
  C  C29  1  0.65295840  0.21860066  0.80797684  1
  C  C30  1  0.39638290  0.28780046  0.20563932  1
  C  C31  1  0.61075990  0.22201629  0.72610050  1
  C  C32  1  0.35393710  0.25306496  0.25286528  1
  C  C33  1  0.65320130  0.25674240  0.67886144  1
  C  C34  1  0.38715136  0.25304705  0.33226300  1
  C  C35  1  0.61999140  0.25676978  0.59947680  1
  C  C36  1  0.46590850  0.28628784  0.36491066  1
  C  C37  1  0.54122996  0.22351933  0.56681603  1
  C  C38  1  0.51045760  0.32052642  0.31782344  1
  C  C39  1  0.49668092  0.18928099  0.61390334  1
  C  C40  1  0.47501382  0.32229483  0.23886529  1
  C  C41  1  0.53212464  0.18751247  0.69286144  1
  C  C42  1  0.49911550  0.28938827  0.44925427  1
  C  C43  1  0.50802296  0.22041917  0.48247254  1
  C  C44  1  0.51967690  0.65820557  0.00310957  1
  C  C45  1  0.49865940  0.88798710  0.86623850  1
  C  C46  1  0.50627136  0.62687520  0.06899464  1
  C  C47  1  0.47529545  0.97490156  0.86094135  1
  C  C48  1  0.52963537  0.53996080  0.07429183  1
  C  C49  1  0.53612580  0.82817350  0.80411110  1
  C  C50  1  0.46880507  0.68668890  0.13112200  1
  C  C51  1  0.42777985  0.99803180  0.98294360  1
  C  C52  1  0.57715100  0.51683056  0.95228950  1
  C  C53  1  0.44952896  0.91304475  0.99035330  1
  C  C54  1  0.55540186  0.60181755  0.94487983  1
  C  C55  1  0.48525384  0.85665680  0.93212354  1
  C  C56  1  0.36057854  0.38535488  0.86562660  1
  C  C57  1  0.28893495  0.35046515  0.88708120  1
  C  C58  1  0.25866777  0.39056143  0.95489824  1
  C  C59  1  0.20225745  0.35300300  0.98564070  1
  C  C60  1  0.17516641  0.27354252  0.95009970  1
  C  C61  1  0.20552772  0.23185211  0.88158053  1
  C  C62  1  0.25987520  0.27141207  0.84883875  1
  C  C63  1  0.99005200  0.18031292  0.04121697  1
  C  C64  1  0.11243773  0.23812210  0.98348886  1
  C  C65  1  0.87994230  0.20895346  0.12651360  1
  C  C66  1  0.80030970  0.19459027  0.13936949  1
  C  C67  1  0.79847650  0.06869772  0.04085135  1
  C  C68  1  0.87755250  0.08344903  0.02758002  1
  C  C69  1  0.91726965  0.15542820  0.06806242  1
  C  C70  1  0.75755990  0.12608613  0.09446061  1
  C  C71  1  0.66818000  0.11843094  0.09823108  1
  Br  Br72  1  0.17839518  0.11919548  0.83184640  1
  N  N73  1  0.39175338  0.05372167  0.04310775  1
  N  N74  1  0.48666370  0.00893915  0.79485476  1
  N  N75  1  0.51826710  0.50592330  0.14037836  1
  N  N76  1  0.44060972  0.02770734  0.91893420  1
  N  N77  1  0.56432104  0.48715490  0.01629889  1
  N  N78  1  0.50923723  0.76918054  0.93771446  1
  N  N79  1  0.49569368  0.74568180  0.99751870  1
  N  N80  1  0.61317730  0.46114072  0.89212525  1
  N  N81  1  0.04265170  0.23636362  0.08755588  1
  N  N82  1  0.10299258  0.26444805  0.05927396  1
  N  N83  1  0.05911125  0.18288234  0.93755930  1
  N  N84  1  0.99957585  0.15415514  0.96578700  1
  N  N85  1  0.28280208  0.23188527  0.77532685  1
  Cl  Cl86  1  0.47652414  0.13803403  0.74671920  1
  Cl  Cl87  1  0.53061440  0.37177312  0.18500750  1
  O  O88  1  0.40071190  0.29686660  0.07317039  1
  O  O89  1  0.60642654  0.21294063  0.85855640  1
  O  O90  1  0.27233478  0.28627430  0.10700792  1
  O  O91  1  0.73480370  0.22353290  0.82471883  1
  O  O92  1  0.58841777  0.35337532  0.34649068  1
  O  O93  1  0.41872070  0.15643196  0.58523610  1
  O  O94  1  0.66480350  0.28626984  0.55212885  1
  O  O95  1  0.34233493  0.22353745  0.37959787  1
  O  O96  1  0.56399220  0.85206145  0.75318784  1
  O  O97  1  0.44096202  0.66280574  0.18206000  1
  O  O98  1  0.39510480  0.34044300  0.80978190  1
  O  O99  1  0.36123273  0.46620733  0.87511550  1
  O  O100  1  0.62728870  0.17850618  0.13608408  1
  O  O101  1  0.63168067  0.05433677  0.05886269  1
  O  O102  1  0.25316685  0.26501380  0.71269540  1
  O  O103  1  0.33368438  0.16332194  0.77084180  1
