# generated using pymatgen
data_CuH11C21S5NO22
_symmetry_space_group_name_H-M   'P 1'
_cell_length_a   10.97727000
_cell_length_b   14.01564000
_cell_length_c   17.65779000
_cell_angle_alpha   87.94822000
_cell_angle_beta   89.53699000
_cell_angle_gamma   86.75232000
_symmetry_Int_Tables_number   1
_chemical_formula_structural   CuH11C21S5NO22
_chemical_formula_sum   'Cu2 H22 C42 S10 N2 O44'
_cell_volume   2710.56021408
_cell_formula_units_Z   2
loop_
 _symmetry_equiv_pos_site_id
 _symmetry_equiv_pos_as_xyz
  1  'x, y, z'
loop_
 _atom_site_type_symbol
 _atom_site_label
 _atom_site_symmetry_multiplicity
 _atom_site_fract_x
 _atom_site_fract_y
 _atom_site_fract_z
 _atom_site_occupancy
  Cu  Cu0  1  0.47890002  0.80766666  0.46036070  1
  Cu  Cu1  1  0.72243820  0.80248740  0.47973967  1
  H  H2  1  0.06228130  0.55776453  0.64598360  1
  H  H3  1  0.02965378  0.96175057  0.24219696  1
  H  H4  1  0.84034110  0.55382740  0.39554780  1
  H  H5  1  0.87862840  0.67772580  0.25959918  1
  H  H6  1  0.49110833  0.95756954  0.51320820  1
  H  H7  1  0.16690578  0.01106954  0.68859580  1
  H  H8  1  0.60377520  0.23427470  0.27825248  1
  H  H9  1  0.36582834  0.05060982  0.49758086  1
  H  H10  1  0.69665920  0.70346606  0.30609486  1
  H  H11  1  0.93259930  0.10491820  0.42887703  1
  H  H12  1  0.27628237  0.61310667  0.64870894  1
  H  H13  1  0.59656840  0.37679747  0.66162460  1
  H  H14  1  0.62938800  0.20440620  0.65720340  1
  H  H15  1  0.55804410  0.40478653  0.28200410  1
  H  H16  1  0.39611688  0.80268930  0.70909150  1
  H  H17  1  0.78793705  0.80573950  0.70073620  1
  H  H18  1  0.42039058  0.78811080  0.23825920  1
  H  H19  1  0.81028354  0.78925693  0.23001707  1
  H  H20  1  0.28073347  0.72333090  0.00581586  1
  H  H21  1  0.94008636  0.72556230  0.99176544  1
  H  H22  1  0.30914846  0.79564340  0.82540570  1
  H  H23  1  0.88545100  0.80013070  0.81314350  1
  C  C24  1  0.00297425  0.84474975  0.50413490  1
  C  C25  1  0.31296825  0.74444085  0.38879886  1
  C  C26  1  0.90087510  0.87439520  0.55584455  1
  C  C27  1  0.18817791  0.87230090  0.46520394  1
  C  C28  1  0.13242666  0.83306710  0.53946614  1
  C  C29  1  0.01742012  0.74212650  0.47474100  1
  C  C30  1  0.07557250  0.77962530  0.40046784  1
  C  C31  1  0.14536762  0.73045590  0.51054930  1
  C  C32  1  0.06060563  0.88272995  0.42884934  1
  C  C33  1  0.20379601  0.76905876  0.43603304  1
  C  C34  1  0.61144483  0.09810037  0.52993464  1
  C  C35  1  0.58147370  0.51479730  0.40897006  1
  C  C36  1  0.67130350  0.11480601  0.40108654  1
  C  C37  1  0.52926030  0.49973541  0.53975330  1
  C  C38  1  0.61995270  0.21074761  0.40003690  1
  C  C39  1  0.57221260  0.40155777  0.53981640  1
  C  C40  1  0.61592560  0.19915321  0.53511720  1
  C  C41  1  0.57465285  0.41341314  0.40421507  1
  C  C42  1  0.60588783  0.25569010  0.46868235  1
  C  C43  1  0.58370530  0.35686925  0.47089303  1
  C  C44  1  0.59826255  0.26658747  0.33293890  1
  C  C45  1  0.59571270  0.34495047  0.60677195  1
  C  C46  1  0.61619170  0.24543844  0.60446910  1
  C  C47  1  0.57514120  0.36594668  0.33502200  1
  C  C48  1  0.58787270  0.80753297  0.61205170  1
  C  C49  1  0.49957640  0.78022635  0.12690997  1
  C  C50  1  0.72322404  0.78091420  0.12217748  1
  C  C51  1  0.50411290  0.78834270  0.20566046  1
  C  C52  1  0.72400504  0.78901140  0.20100868  1
  C  C53  1  0.61528900  0.79411274  0.24292970  1
  C  C54  1  0.60988957  0.77855180  0.08469212  1
  C  C55  1  0.60613894  0.78329040  0.00325131  1
  C  C56  1  0.60290430  0.78840494  0.93528170  1
  C  C57  1  0.48600390  0.79676870  0.81725000  1
  C  C58  1  0.70827020  0.79850320  0.81251050  1
  C  C59  1  0.48310488  0.80163560  0.73773080  1
  C  C60  1  0.70376450  0.80335695  0.73302585  1
  C  C61  1  0.59159744  0.80458750  0.69537270  1
  C  C62  1  0.59901756  0.79473260  0.85411560  1
  C  C63  1  0.61823420  0.80074960  0.32600725  1
  C  C64  1  0.37830994  0.77291006  0.09092248  1
  C  C65  1  0.84233860  0.77436566  0.08108795  1
  S  S66  1  0.18267782  0.63298180  0.57025590  1
  S  S67  1  0.03992788  0.72605616  0.31080240  1
  S  S68  1  0.88965170  0.66484500  0.46883407  1
  S  S69  1  0.30624992  0.95957464  0.47121665  1
  S  S70  1  0.18246762  0.87750596  0.63038930  1
  S  S71  1  0.01713269  0.97297645  0.36323450  1
  S  S72  1  0.49534845  0.05038215  0.58867850  1
  S  S73  1  0.69916683  0.55853440  0.34840790  1
  S  S74  1  0.80019570  0.10210652  0.33954980  1
  S  S75  1  0.43821360  0.52931050  0.62054040  1
  N  N76  1  0.65398680  0.05301714  0.46436045  1
  N  N77  1  0.54346090  0.56025750  0.47530705  1
  O  O78  1  0.13241184  0.99221915  0.64003265  1
  O  O79  1  0.28956363  0.70624685  0.32411307  1
  O  O80  1  0.80953170  0.81784200  0.55780140  1
  O  O81  1  0.38849258  0.81266820  0.38607510  1
  O  O82  1  0.93963087  0.90016490  0.62117050  1
  O  O83  1  0.28222427  0.57674520  0.53181785  1
  O  O84  1  0.22484578  0.66798180  0.64298135  1
  O  O85  1  0.06182874  0.56957954  0.59030914  1
  O  O86  1  0.91082540  0.02659321  0.39698030  1
  O  O87  1  0.12077944  0.03474677  0.34709358  1
  O  O88  1  0.98069630  0.92841330  0.28127503  1
  O  O89  1  0.85115780  0.62611854  0.54519650  1
  O  O90  1  0.78306750  0.72264117  0.43514004  1
  O  O91  1  0.92079990  0.57438230  0.41143690  1
  O  O92  1  0.09888963  0.77590185  0.24444175  1
  O  O93  1  0.08712207  0.62336326  0.31284305  1
  O  O94  1  0.88963040  0.72722554  0.29720888  1
  O  O95  1  0.33584422  0.00415850  0.39514172  1
  O  O96  1  0.26777965  0.03629327  0.52441347  1
  O  O97  1  0.43594557  0.90527060  0.50545960  1
  O  O98  1  0.13331982  0.82073430  0.69656560  1
  O  O99  1  0.31841448  0.87381214  0.63390190  1
  O  O100  1  0.54780520  0.98153070  0.64829980  1
  O  O101  1  0.42387420  0.12824932  0.62897510  1
  O  O102  1  0.39524540  0.99935140  0.53416866  1
  O  O103  1  0.81522530  0.50209170  0.36939758  1
  O  O104  1  0.67357594  0.53987795  0.26695034  1
  O  O105  1  0.72676784  0.67348830  0.35411268  1
  O  O106  1  0.77248610  0.04087875  0.27468640  1
  O  O107  1  0.83338080  0.19744821  0.30605358  1
  O  O108  1  0.92337966  0.05936907  0.38795468  1
  O  O109  1  0.37339777  0.44255970  0.64770640  1
  O  O110  1  0.52125640  0.55635190  0.68249240  1
  O  O111  1  0.33018866  0.61582166  0.60377795  1
  O  O112  1  0.48427450  0.80743784  0.57812464  1
  O  O113  1  0.68830127  0.80910337  0.57373680  1
  O  O114  1  0.51766944  0.80153200  0.36432076  1
  O  O115  1  0.72154605  0.80319630  0.35993612  1
  O  O116  1  0.28636280  0.80786204  0.12110794  1
  O  O117  1  0.36811346  0.72384167  0.02390873  1
  O  O118  1  0.93131930  0.80979306  0.10748899  1
  O  O119  1  0.85433150  0.72552425  0.01353622  1
  O  O120  1  0.38014475  0.79377880  0.85991377  1
  O  O121  1  0.81784580  0.79718053  0.85059180  1
